GA ranked 1 2R04.*


 51 53  0  0  1  0  0  0  0  0999 V2000
   36.6477    4.6695  124.8390 C   0  0  0  0  0  0  0  0  0  0  0  0
   38.9953    5.0505  125.2641 C   0  0  0  0  0  0  0  0  0  0  0  0
   36.9695    3.5626  124.0539 C   0  0  0  0  0  0  0  0  0  0  0  0
   39.3171    3.9434  124.4791 C   0  0  0  0  0  0  0  0  0  0  0  0
   37.6606    5.4136  125.4441 C   0  0  0  0  0  0  0  0  0  0  0  0
   38.3042    3.1994  123.8740 C   0  0  0  0  0  0  0  0  0  0  0  0
   47.2277   -3.9606  122.7668 C   0  0  0  0  0  0  0  0  0  0  0  0
   38.1174    8.5797  126.1646 C   0  0  0  0  0  0  0  0  0  0  0  0
   48.2816   -3.3844  122.1811 C   0  0  0  0  0  0  0  0  0  0  0  0
   46.3315   -2.8885  123.1309 C   0  0  0  0  0  0  0  0  0  0  0  0
   45.1481   -3.0053  123.7433 C   0  0  0  0  0  0  0  0  0  0  0  0
   36.7442    8.6851  125.5930 C   0  0  0  0  0  0  0  0  0  0  0  0
   37.3165    6.5970  126.2835 C   0  0  1  0  0  0  0  0  0  0  0  0
   49.4970   -4.0188  121.6209 C   0  0  0  0  0  0  0  0  0  0  0  0
   44.2661   -1.8432  124.0924 C   0  0  0  0  0  0  0  0  0  0  0  0
   42.8799   -1.9880  123.4610 C   0  0  0  0  0  0  0  0  0  0  0  0
   42.1709   -0.6349  123.3610 C   0  0  0  0  0  0  0  0  0  0  0  0
   40.8538   -0.7554  122.5913 C   0  0  0  0  0  0  0  0  0  0  0  0
   40.2729    0.5979  122.1670 C   0  0  0  0  0  0  0  0  0  0  0  0
   39.8886    1.5128  123.3251 C   0  0  0  0  0  0  0  0  0  0  0  0
   38.5088    7.4168  126.5740 N   0  0  0  0  0  0  0  0  0  0  0  0
   48.0841   -2.0328  122.1640 N   0  0  0  0  0  0  0  0  0  0  0  0
   46.8756   -1.6559  122.7490 O   0  0  0  0  0  0  0  0  0  0  0  0
   36.2923    7.3348  125.6014 O   0  0  0  0  0  0  0  0  0  0  0  0
   38.6195    2.1102  123.1030 O   0  0  0  0  0  0  0  0  0  0  0  0
   35.6052    4.9454  124.9738 H   0  0  0  0  0  0  0  0  0  0  0  0
   39.7913    5.6248  125.7310 H   0  0  0  0  0  0  0  0  0  0  0  0
   36.1767    2.9862  123.5849 H   0  0  0  0  0  0  0  0  0  0  0  0
   40.3587    3.6664  124.3420 H   0  0  0  0  0  0  0  0  0  0  0  0
   47.0668   -5.0115  122.9405 H   0  0  0  0  0  0  0  0  0  0  0  0
   38.7539    9.4738  126.2313 H   0  0  0  0  0  0  0  0  0  0  0  0
   44.7898   -3.9989  123.9992 H   0  0  0  0  0  0  0  0  0  0  0  0
   36.1084    9.3085  126.2254 H   0  0  0  0  0  0  0  0  0  0  0  0
   36.7744    9.0718  124.5724 H   0  0  0  0  0  0  0  0  0  0  0  0
   36.8937    6.2327  127.2265 H   0  0  0  0  0  0  0  0  0  0  0  0
   50.1470   -3.2644  121.1678 H   0  0  0  0  0  0  0  0  0  0  0  0
   49.2268   -4.7530  120.8556 H   0  0  0  0  0  0  0  0  0  0  0  0
   50.0556   -4.5349  122.4077 H   0  0  0  0  0  0  0  0  0  0  0  0
   44.7442   -0.9244  123.7320 H   0  0  0  0  0  0  0  0  0  0  0  0
   44.1673   -1.7445  125.1804 H   0  0  0  0  0  0  0  0  0  0  0  0
   42.2702   -2.6774  124.0590 H   0  0  0  0  0  0  0  0  0  0  0  0
   42.9722   -2.4276  122.4596 H   0  0  0  0  0  0  0  0  0  0  0  0
   42.8261    0.0863  122.8581 H   0  0  0  0  0  0  0  0  0  0  0  0
   41.9814   -0.2546  124.3712 H   0  0  0  0  0  0  0  0  0  0  0  0
   41.0211   -1.3522  121.6858 H   0  0  0  0  0  0  0  0  0  0  0  0
   40.1209   -1.3040  123.1949 H   0  0  0  0  0  0  0  0  0  0  0  0
   39.3759    0.3978  121.5678 H   0  0  0  0  0  0  0  0  0  0  0  0
   40.9846    1.1180  121.5157 H   0  0  0  0  0  0  0  0  0  0  0  0
   39.8502    0.9657  124.2712 H   0  0  0  0  0  0  0  0  0  0  0  0
   40.6284    2.3122  123.4369 H   0  0  0  0  0  0  0  0  0  0  0  0
   48.7265   -1.3499  121.7896 H   0  0  0  0  0  0  0  0  0  0  0  0
  1  3  4  0  0  0  0
  1  5  4  0  0  0  0
  2  4  4  0  0  0  0
  2  5  4  0  0  0  0
  3  6  4  0  0  0  0
  4  6  4  0  0  0  0
  5 13  1  0  0  0  0
  6 25  1  0  0  0  0
  7  9  2  0  0  0  0
  7 10  1  0  0  0  0
  8 12  1  0  0  0  0
  8 21  2  0  0  0  0
  9 14  1  0  0  0  0
  9 22  1  0  0  0  0
 10 11  2  0  0  0  0
 10 23  1  0  0  0  0
 11 15  1  0  0  0  0
 12 24  1  0  0  0  0
 13 21  1  0  0  0  0
 13 24  1  0  0  0  0
 15 16  1  0  0  0  0
 16 17  1  0  0  0  0
 17 18  1  0  0  0  0
 18 19  1  0  0  0  0
 19 20  1  0  0  0  0
 20 25  1  0  0  0  0
 22 23  1  0  0  0  0
  1 26  1  0  0  0  0
  2 27  1  0  0  0  0
  3 28  1  0  0  0  0
  4 29  1  0  0  0  0
  7 30  1  0  0  0  0
  8 31  1  0  0  0  0
 11 32  1  0  0  0  0
 12 33  1  0  0  0  0
 12 34  1  0  0  0  0
 13 35  1  0  0  0  0
 14 36  1  0  0  0  0
 14 37  1  0  0  0  0
 14 38  1  0  0  0  0
 15 39  1  0  0  0  0
 15 40  1  0  0  0  0
 16 41  1  0  0  0  0
 16 42  1  0  0  0  0
 17 43  1  0  0  0  0
 17 44  1  0  0  0  0
 18 45  1  0  0  0  0
 18 46  1  0  0  0  0
 19 47  1  0  0  0  0
 19 48  1  0  0  0  0
 20 49  1  0  0  0  0
 20 50  1  0  0  0  0
 22 51  1  0  0  0  0
M  END
>  <COMMENT>
GA Superposition Molecule

$$$$
GA ranked 1 2R06.*


 48 50  0  0  1  0  0  0  0  0999 V2000
   37.1865    4.4094  124.8865 C   0  0  0  0  0  0  0  0  0  0  0  0
   39.4305    5.1371  124.3655 C   0  0  0  0  0  0  0  0  0  0  0  0
   37.4728    3.1497  124.3604 C   0  0  0  0  0  0  0  0  0  0  0  0
   39.7168    3.8774  123.8394 C   0  0  0  0  0  0  0  0  0  0  0  0
   46.1402   -3.3135  123.5426 C   0  0  0  0  0  0  0  0  0  0  0  0
   38.1653    5.4031  124.8890 C   0  0  0  0  0  0  0  0  0  0  0  0
   38.7380    2.8837  123.8368 C   0  0  0  0  0  0  0  0  0  0  0  0
   46.9824   -3.1581  122.4281 C   0  0  0  0  0  0  0  0  0  0  0  0
   45.1973   -2.3338  123.3773 C   0  0  0  0  0  0  0  0  0  0  0  0
   36.9865    8.3588  126.8764 C   0  0  0  0  0  0  0  0  0  0  0  0
   38.4962    8.4749  126.8392 C   0  0  0  0  0  0  0  0  0  0  0  0
   37.8560    6.7644  125.4579 C   0  0  1  0  0  0  0  0  0  0  0  0
   48.1765   -3.9462  122.0826 C   0  0  0  0  0  0  0  0  0  0  0  0
   43.9900   -1.9024  124.1709 C   0  0  0  0  0  0  0  0  0  0  0  0
   42.9054   -1.3107  123.2660 C   0  0  0  0  0  0  0  0  0  0  0  0
   42.0428   -0.2986  124.0218 C   0  0  0  0  0  0  0  0  0  0  0  0
   40.7322   -0.0269  123.2863 C   0  0  0  0  0  0  0  0  0  0  0  0
   39.7548    0.7568  124.1505 C   0  0  0  0  0  0  0  0  0  0  0  0
   46.5918   -2.1586  121.6324 N   0  0  0  0  0  0  0  0  0  0  0  0
   36.6332    6.7891  126.3226 N   0  3  0  0  0  0  0  0  0  0  0  0
   45.4561   -1.6378  122.2409 O   0  0  0  0  0  0  0  0  0  0  0  0
   38.9823    7.2931  126.1804 O   0  0  0  0  0  0  0  0  0  0  0  0
   39.0187    1.6451  123.3210 O   0  0  0  0  0  0  0  0  0  0  0  0
   36.1982    4.6080  125.2925 H   0  0  0  0  0  0  0  0  0  0  0  0
   40.1994    5.9055  124.3623 H   0  0  0  0  0  0  0  0  0  0  0  0
   36.7068    2.3791  124.3610 H   0  0  0  0  0  0  0  0  0  0  0  0
   40.7040    3.6769  123.4320 H   0  0  0  0  0  0  0  0  0  0  0  0
   46.2068   -4.0310  124.3471 H   0  0  0  0  0  0  0  0  0  0  0  0
   36.5317    8.6513  127.8252 H   0  0  0  0  0  0  0  0  0  0  0  0
   36.5157    8.8812  126.0378 H   0  0  0  0  0  0  0  0  0  0  0  0
   38.8360    9.3639  126.3008 H   0  0  0  0  0  0  0  0  0  0  0  0
   38.9171    8.4941  127.8507 H   0  0  0  0  0  0  0  0  0  0  0  0
   37.6480    7.4559  124.6168 H   0  0  0  0  0  0  0  0  0  0  0  0
   48.7849   -4.1665  122.9769 H   0  0  0  0  0  0  0  0  0  0  0  0
   47.9182   -4.9116  121.6113 H   0  0  0  0  0  0  0  0  0  0  0  0
   48.8277   -3.4230  121.3591 H   0  0  0  0  0  0  0  0  0  0  0  0
   43.5850   -2.7592  124.7249 H   0  0  0  0  0  0  0  0  0  0  0  0
   44.2875   -1.1637  124.9265 H   0  0  0  0  0  0  0  0  0  0  0  0
   43.3687   -0.8227  122.3989 H   0  0  0  0  0  0  0  0  0  0  0  0
   42.2692   -2.1140  122.8730 H   0  0  0  0  0  0  0  0  0  0  0  0
   41.8273   -0.6785  125.0279 H   0  0  0  0  0  0  0  0  0  0  0  0
   42.5978    0.6396  124.1421 H   0  0  0  0  0  0  0  0  0  0  0  0
   40.9245    0.5289  122.3601 H   0  0  0  0  0  0  0  0  0  0  0  0
   40.2671   -0.9715  122.9776 H   0  0  0  0  0  0  0  0  0  0  0  0
   40.2858    1.3449  124.9057 H   0  0  0  0  0  0  0  0  0  0  0  0
   39.0508    0.0847  124.6519 H   0  0  0  0  0  0  0  0  0  0  0  0
   36.6763    6.0647  127.0532 H   0  0  0  0  0  0  0  0  0  0  0  0
   35.7662    6.6394  125.7884 H   0  0  0  0  0  0  0  0  0  0  0  0
  1  3  4  0  0  0  0
  1  6  4  0  0  0  0
  2  4  4  0  0  0  0
  2  6  4  0  0  0  0
  3  7  4  0  0  0  0
  4  7  4  0  0  0  0
  5  8  4  0  0  0  0
  5  9  4  0  0  0  0
  6 12  1  0  0  0  0
  7 23  1  0  0  0  0
  8 13  1  0  0  0  0
  8 19  4  0  0  0  0
  9 14  1  0  0  0  0
  9 21  4  0  0  0  0
 10 11  1  0  0  0  0
 10 20  1  0  0  0  0
 11 22  1  0  0  0  0
 12 20  1  0  0  0  0
 12 22  1  0  0  0  0
 14 15  1  0  0  0  0
 15 16  1  0  0  0  0
 16 17  1  0  0  0  0
 17 18  1  0  0  0  0
 18 23  1  0  0  0  0
 19 21  4  0  0  0  0
  1 24  1  0  0  0  0
  2 25  1  0  0  0  0
  3 26  1  0  0  0  0
  4 27  1  0  0  0  0
  5 28  1  0  0  0  0
 10 29  1  0  0  0  0
 10 30  1  0  0  0  0
 11 31  1  0  0  0  0
 11 32  1  0  0  0  0
 12 33  1  0  0  0  0
 13 34  1  0  0  0  0
 13 35  1  0  0  0  0
 13 36  1  0  0  0  0
 14 37  1  0  0  0  0
 14 38  1  0  0  0  0
 15 39  1  0  0  0  0
 15 40  1  0  0  0  0
 16 41  1  0  0  0  0
 16 42  1  0  0  0  0
 17 43  1  0  0  0  0
 17 44  1  0  0  0  0
 18 45  1  0  0  0  0
 18 46  1  0  0  0  0
 20 47  1  0  0  0  0
 20 48  1  0  0  0  0
M  END
>  <PHARMACOPHORE>
DONOR_HYDROGEN SP3_N+H2 ATOM_48 [charged = yes] {VECTOR [8.27339506413333,-0.009042855066949018,-9.086563856638708] [6.76377601491821,-1.0878958145294435,-6.857858712815091]}

>  <COMMENT>
GA Superposition Molecule

$$$$
GA ranked 1 2R07.*


 48 50  0  0  1  0  0  0  0  0999 V2000
   39.1657    5.3629  125.1046 C   0  0  0  0  0  0  0  0  0  0  0  0
   39.8144    4.3829  124.3534 C   0  0  0  0  0  0  0  0  0  0  0  0
   37.1042    4.1115  124.9569 C   0  0  0  0  0  0  0  0  0  0  0  0
   46.2062   -3.0924  123.6527 C   0  0  0  0  0  0  0  0  0  0  0  0
   37.8105    5.2272  125.4065 C   0  0  0  0  0  0  0  0  0  0  0  0
   37.7530    3.1315  124.2057 C   0  0  0  0  0  0  0  0  0  0  0  0
   39.1080    3.2672  123.9040 C   0  0  0  0  0  0  0  0  0  0  0  0
   46.8855   -3.2995  122.4396 C   0  0  0  0  0  0  0  0  0  0  0  0
   45.0815   -2.4037  123.2827 C   0  0  0  0  0  0  0  0  0  0  0  0
   36.2628    8.0351  125.3350 C   0  0  0  0  0  0  0  0  0  0  0  0
   37.5941    8.4679  125.8489 C   0  0  0  0  0  0  0  0  0  0  0  0
   37.1163    6.2756  126.2083 C   0  0  2  0  0  0  0  0  0  0  0  0
   36.9817    1.9433  123.7339 C   0  0  0  0  0  0  0  0  0  0  0  0
   48.1666   -3.9928  122.2298 C   0  0  0  0  0  0  0  0  0  0  0  0
   43.9011   -1.8490  124.0392 C   0  0  0  0  0  0  0  0  0  0  0  0
   43.0119   -0.9869  123.1385 C   0  0  0  0  0  0  0  0  0  0  0  0
   41.7292   -0.5696  123.8599 C   0  0  0  0  0  0  0  0  0  0  0  0
   40.7731    0.1577  122.9171 C   0  0  0  0  0  0  0  0  0  0  0  0
   39.7530    0.9890  123.6821 C   0  0  0  0  0  0  0  0  0  0  0  0
   46.2320   -2.7789  121.3971 N   0  0  0  0  0  0  0  0  0  0  0  0
   35.9292    6.7966  125.5030 N   0  0  0  0  0  0  0  0  0  0  0  0
   45.0854   -2.2104  121.9390 O   0  0  0  0  0  0  0  0  0  0  0  0
   38.0738    7.3017  126.5098 O   0  0  0  0  0  0  0  0  0  0  0  0
   39.7611    2.3133  123.1674 O   0  0  0  0  0  0  0  0  0  0  0  0
   39.7233    6.2292  125.4501 H   0  0  0  0  0  0  0  0  0  0  0  0
   40.8700    4.4947  124.1217 H   0  0  0  0  0  0  0  0  0  0  0  0
   36.0479    4.0061  125.1933 H   0  0  0  0  0  0  0  0  0  0  0  0
   46.4902   -3.3985  124.6489 H   0  0  0  0  0  0  0  0  0  0  0  0
   35.6031    8.7620  124.8401 H   0  0  0  0  0  0  0  0  0  0  0  0
   38.2595    8.7442  125.0283 H   0  0  0  0  0  0  0  0  0  0  0  0
   37.4858    9.2940  126.5552 H   0  0  0  0  0  0  0  0  0  0  0  0
   36.8001    5.8257  127.1565 H   0  0  0  0  0  0  0  0  0  0  0  0
   35.9049    2.1398  123.7959 H   0  0  0  0  0  0  0  0  0  0  0  0
   37.2320    1.6949  122.6950 H   0  0  0  0  0  0  0  0  0  0  0  0
   37.2104    1.0564  124.3378 H   0  0  0  0  0  0  0  0  0  0  0  0
   48.3423   -4.1969  121.1593 H   0  0  0  0  0  0  0  0  0  0  0  0
   49.0258   -3.4048  122.6006 H   0  0  0  0  0  0  0  0  0  0  0  0
   48.2110   -4.9595  122.7634 H   0  0  0  0  0  0  0  0  0  0  0  0
   43.3124   -2.6728  124.4636 H   0  0  0  0  0  0  0  0  0  0  0  0
   44.2534   -1.2549  124.8924 H   0  0  0  0  0  0  0  0  0  0  0  0
   43.5610   -0.0917  122.8195 H   0  0  0  0  0  0  0  0  0  0  0  0
   42.7561   -1.5416  122.2269 H   0  0  0  0  0  0  0  0  0  0  0  0
   41.2340   -1.4574  124.2719 H   0  0  0  0  0  0  0  0  0  0  0  0
   41.9789    0.0832  124.7051 H   0  0  0  0  0  0  0  0  0  0  0  0
   41.3341    0.8089  122.2352 H   0  0  0  0  0  0  0  0  0  0  0  0
   40.2479   -0.5634  122.2782 H   0  0  0  0  0  0  0  0  0  0  0  0
   40.0011    1.0278  124.7476 H   0  0  0  0  0  0  0  0  0  0  0  0
   38.7459    0.5760  123.5652 H   0  0  0  0  0  0  0  0  0  0  0  0
  1  2  4  0  0  0  0
  1  5  4  0  0  0  0
  2  7  4  0  0  0  0
  3  5  4  0  0  0  0
  3  6  4  0  0  0  0
  4  8  4  0  0  0  0
  4  9  4  0  0  0  0
  5 12  1  0  0  0  0
  6  7  4  0  0  0  0
  6 13  1  0  0  0  0
  7 24  1  0  0  0  0
  8 14  1  0  0  0  0
  8 20  4  0  0  0  0
  9 15  1  0  0  0  0
  9 22  4  0  0  0  0
 10 11  1  0  0  0  0
 10 21  2  0  0  0  0
 11 23  1  0  0  0  0
 12 21  1  0  0  0  0
 12 23  1  0  0  0  0
 15 16  1  0  0  0  0
 16 17  1  0  0  0  0
 17 18  1  0  0  0  0
 18 19  1  0  0  0  0
 19 24  1  0  0  0  0
 20 22  4  0  0  0  0
  1 25  1  0  0  0  0
  2 26  1  0  0  0  0
  3 27  1  0  0  0  0
  4 28  1  0  0  0  0
 10 29  1  0  0  0  0
 11 30  1  0  0  0  0
 11 31  1  0  0  0  0
 12 32  1  0  0  0  0
 13 33  1  0  0  0  0
 13 34  1  0  0  0  0
 13 35  1  0  0  0  0
 14 36  1  0  0  0  0
 14 37  1  0  0  0  0
 14 38  1  0  0  0  0
 15 39  1  0  0  0  0
 15 40  1  0  0  0  0
 16 41  1  0  0  0  0
 16 42  1  0  0  0  0
 17 43  1  0  0  0  0
 17 44  1  0  0  0  0
 18 45  1  0  0  0  0
 18 46  1  0  0  0  0
 19 47  1  0  0  0  0
 19 48  1  0  0  0  0
M  END
>  <PHARMACOPHORE>
ACCEPTOR_ATOM ASYMMETRIC_HET5_N ATOM_20  {VECTOR [6.093525168830606,-8.884116640398094,-20.24124011454202] [3.432297965876458,-9.392420297754363,-21.275405075355852]}
ACCEPTOR_ATOM SYMMETRIC_HET5_N ATOM_21  {VECTOR [7.434341585017785,-0.2754998563746156,-8.460274930281587] [6.827738326925602,-2.1292793993393637,-6.314224163557427]}
ACCEPTOR_ATOM HET5_O_AROMATIC ATOM_22  {VECTOR [6.433994727372319,-8.389163709542883,-18.988037303364095] [4.554174671006719,-7.667465927192716,-16.901070876553046]}

>  <COMMENT>
GA Superposition Molecule

$$$$
GA ranked 1 2RM2.* Base Molecule


 57 59  0  0  1  0  0  0  0  0999 V2000
   39.4124    4.8422  124.8024 C   0  0  0  0  0  0  0  0  0  0  0  0
   39.5290    3.6318  124.1193 C   0  0  0  0  0  0  0  0  0  0  0  0
   37.0153    4.5563  124.9002 C   0  0  0  0  0  0  0  0  0  0  0  0
   46.9788   -3.7938  122.1842 C   0  0  0  0  0  0  0  0  0  0  0  0
   38.1556    5.3045  125.1930 C   0  0  0  0  0  0  0  0  0  0  0  0
   38.3887    2.8835  123.8265 C   0  0  0  0  0  0  0  0  0  0  0  0
   37.1319    3.3458  124.2170 C   0  0  0  0  0  0  0  0  0  0  0  0
   48.2420   -3.4115  122.6677 C   0  0  0  0  0  0  0  0  0  0  0  0
   46.1466   -3.5943  123.2536 C   0  0  0  0  0  0  0  0  0  0  0  0
   37.3374    8.9080  126.0153 C   0  0  0  0  0  0  0  0  0  0  0  0
   38.0303    6.6129  125.9334 C   0  0  2  0  0  0  0  0  0  0  0  0
   36.7846    8.1468  127.2091 C   0  0  1  0  0  0  0  0  0  0  0  0
   49.5243   -3.4174  121.9453 C   0  0  0  0  0  0  0  0  0  0  0  0
   37.6271    8.2418  128.4621 C   0  0  0  0  0  0  0  0  0  0  0  0
   44.6664   -3.7844  123.4752 C   0  0  0  0  0  0  0  0  0  0  0  0
   43.8333   -2.5610  123.0771 C   0  0  0  0  0  0  0  0  0  0  0  0
   43.8052   -1.4725  124.1546 C   0  0  0  0  0  0  0  0  0  0  0  0
   43.0186   -0.2472  123.6837 C   0  0  0  0  0  0  0  0  0  0  0  0
   41.5106   -0.4846  123.7778 C   0  0  0  0  0  0  0  0  0  0  0  0
   40.7257    0.7609  123.3717 C   0  0  0  0  0  0  0  0  0  0  0  0
   39.2702    0.6749  123.8087 C   0  0  0  0  0  0  0  0  0  0  0  0
   48.1968   -3.0059  123.9399 N   0  0  0  0  0  0  0  0  0  0  0  0
   36.7470    6.7408  126.7038 N   0  3  0  0  0  0  0  0  0  0  0  0
   46.8618   -3.1243  124.3076 O   0  0  0  0  0  0  0  0  0  0  0  0
   37.8934    8.0031  124.9999 O   0  0  0  0  0  0  0  0  0  0  0  0
   38.5329    1.6978  123.1540 O   0  0  0  0  0  0  0  0  0  0  0  0
   35.7052    2.4421  123.8654 Cl  0  0  0  0  0  0  0  0  0  0  0  0
   40.3060    5.4183  125.0272 H   0  0  0  0  0  0  0  0  0  0  0  0
   40.5109    3.2783  123.8172 H   0  0  0  0  0  0  0  0  0  0  0  0
   36.0383    4.9222  125.2081 H   0  0  0  0  0  0  0  0  0  0  0  0
   46.7109   -4.1595  121.2037 H   0  0  0  0  0  0  0  0  0  0  0  0
   36.6001    9.5839  125.5732 H   0  0  0  0  0  0  0  0  0  0  0  0
   38.2350    9.4843  126.2683 H   0  0  0  0  0  0  0  0  0  0  0  0
   38.8445    6.6730  126.6844 H   0  0  0  0  0  0  0  0  0  0  0  0
   35.7430    8.4272  127.4006 H   0  0  0  0  0  0  0  0  0  0  0  0
   49.4827   -2.7757  121.0481 H   0  0  0  0  0  0  0  0  0  0  0  0
   50.3592   -3.0565  122.5727 H   0  0  0  0  0  0  0  0  0  0  0  0
   49.8131   -4.4315  121.6145 H   0  0  0  0  0  0  0  0  0  0  0  0
   38.4079    8.9983  128.3429 H   0  0  0  0  0  0  0  0  0  0  0  0
   38.1064    7.2821  128.6756 H   0  0  0  0  0  0  0  0  0  0  0  0
   37.0079    8.5169  129.3207 H   0  0  0  0  0  0  0  0  0  0  0  0
   44.4645   -4.0442  124.5221 H   0  0  0  0  0  0  0  0  0  0  0  0
   44.3310   -4.6461  122.8829 H   0  0  0  0  0  0  0  0  0  0  0  0
   42.8061   -2.8967  122.8872 H   0  0  0  0  0  0  0  0  0  0  0  0
   44.2050   -2.1374  122.1359 H   0  0  0  0  0  0  0  0  0  0  0  0
   43.3491   -1.8716  125.0687 H   0  0  0  0  0  0  0  0  0  0  0  0
   44.8270   -1.1671  124.4070 H   0  0  0  0  0  0  0  0  0  0  0  0
   43.2926    0.6218  124.2943 H   0  0  0  0  0  0  0  0  0  0  0  0
   43.2893   -0.0128  122.6470 H   0  0  0  0  0  0  0  0  0  0  0  0
   41.2465   -0.7667  124.8043 H   0  0  0  0  0  0  0  0  0  0  0  0
   41.2294   -1.3234  123.1295 H   0  0  0  0  0  0  0  0  0  0  0  0
   41.1834    1.6576  123.8080 H   0  0  0  0  0  0  0  0  0  0  0  0
   40.7708    0.9002  122.2843 H   0  0  0  0  0  0  0  0  0  0  0  0
   39.1779    0.8170  124.8903 H   0  0  0  0  0  0  0  0  0  0  0  0
   38.8377   -0.2937  123.5382 H   0  0  0  0  0  0  0  0  0  0  0  0
   35.9090    6.5575  126.1347 H   0  0  0  0  0  0  0  0  0  0  0  0
   36.7385    6.0663  127.4815 H   0  0  0  0  0  0  0  0  0  0  0  0
  1  2  4  0  0  0  0
  1  5  4  0  0  0  0
  2  6  4  0  0  0  0
  3  5  4  0  0  0  0
  3  7  4  0  0  0  0
  4  8  4  0  0  0  0
  4  9  4  0  0  0  0
  5 11  1  0  0  0  0
  6  7  4  0  0  0  0
  6 26  1  0  0  0  0
  7 27  1  0  0  0  0
  8 13  1  0  0  0  0
  8 22  4  0  0  0  0
  9 15  1  0  0  0  0
  9 24  4  0  0  0  0
 10 12  1  0  0  0  0
 10 25  1  0  0  0  0
 11 23  1  0  0  0  0
 11 25  1  0  0  0  0
 12 14  1  0  0  0  0
 12 23  1  0  0  0  0
 15 16  1  0  0  0  0
 16 17  1  0  0  0  0
 17 18  1  0  0  0  0
 18 19  1  0  0  0  0
 19 20  1  0  0  0  0
 20 21  1  0  0  0  0
 21 26  1  0  0  0  0
 22 24  4  0  0  0  0
  1 28  1  0  0  0  0
  2 29  1  0  0  0  0
  3 30  1  0  0  0  0
  4 31  1  0  0  0  0
 10 32  1  0  0  0  0
 10 33  1  0  0  0  0
 11 34  1  0  0  0  0
 12 35  1  0  0  0  0
 13 36  1  0  0  0  0
 13 37  1  0  0  0  0
 13 38  1  0  0  0  0
 14 39  1  0  0  0  0
 14 40  1  0  0  0  0
 14 41  1  0  0  0  0
 15 42  1  0  0  0  0
 15 43  1  0  0  0  0
 16 44  1  0  0  0  0
 16 45  1  0  0  0  0
 17 46  1  0  0  0  0
 17 47  1  0  0  0  0
 18 48  1  0  0  0  0
 18 49  1  0  0  0  0
 19 50  1  0  0  0  0
 19 51  1  0  0  0  0
 20 52  1  0  0  0  0
 20 53  1  0  0  0  0
 21 54  1  0  0  0  0
 21 55  1  0  0  0  0
 23 56  1  0  0  0  0
 23 57  1  0  0  0  0
M  END
>  <COMMENT>
GA Superposition Molecule

$$$$
GA ranked 1 2RR1.*


 57 59  0  0  1  0  0  0  0  0999 V2000
   37.2173    4.4866  124.7016 C   0  0  0  0  0  0  0  0  0  0  0  0
   39.4534    5.3525  124.9962 C   0  0  0  0  0  0  0  0  0  0  0  0
   37.7397    3.2121  124.4821 C   0  0  0  0  0  0  0  0  0  0  0  0
   39.9760    4.0780  124.7768 C   0  0  0  0  0  0  0  0  0  0  0  0
   47.6716   -3.5581  123.1171 C   0  0  0  0  0  0  0  0  0  0  0  0
   38.0741    5.5568  124.9586 C   0  0  0  0  0  0  0  0  0  0  0  0
   39.1190    3.0077  124.5197 C   0  0  0  0  0  0  0  0  0  0  0  0
   48.1436   -3.5587  121.7931 C   0  0  0  0  0  0  0  0  0  0  0  0
   46.3419   -3.2562  122.9888 C   0  0  0  0  0  0  0  0  0  0  0  0
   37.6064    8.7579  126.7435 C   0  0  0  0  0  0  0  0  0  0  0  0
   37.5090    6.9352  125.1965 C   0  0  1  0  0  0  0  0  0  0  0  0
   36.1606    8.3643  126.4887 C   0  0  2  0  0  0  0  0  0  0  0  0
   49.5131   -3.8232  121.3235 C   0  0  0  0  0  0  0  0  0  0  0  0
   35.4662    9.1760  125.4173 C   0  0  0  0  0  0  0  0  0  0  0  0
   45.2097   -3.0857  123.9714 C   0  0  0  0  0  0  0  0  0  0  0  0
   43.9526   -2.4717  123.3448 C   0  0  0  0  0  0  0  0  0  0  0  0
   42.7109   -2.5993  124.2325 C   0  0  0  0  0  0  0  0  0  0  0  0
   41.4574   -2.1076  123.5053 C   0  0  0  0  0  0  0  0  0  0  0  0
   41.4873   -0.5909  123.3092 C   0  0  0  0  0  0  0  0  0  0  0  0
   40.1350   -0.0657  122.8326 C   0  0  0  0  0  0  0  0  0  0  0  0
   40.0366    1.4463  122.9782 C   0  0  0  0  0  0  0  0  0  0  0  0
   47.1802   -3.2787  120.9111 N   0  0  0  0  0  0  0  0  0  0  0  0
   36.2867    6.9354  126.0698 N   0  3  0  0  0  0  0  0  0  0  0  0
   46.0363   -3.0873  121.6768 O   0  0  0  0  0  0  0  0  0  0  0  0
   38.4526    7.9938  126.0901 O   0  0  0  0  0  0  0  0  0  0  0  0
   39.6314    1.7547  124.3048 O   0  0  0  0  0  0  0  0  0  0  0  0
   36.1414    4.6368  124.6705 H   0  0  0  0  0  0  0  0  0  0  0  0
   40.1289    6.1806  125.1951 H   0  0  0  0  0  0  0  0  0  0  0  0
   37.0679    2.3818  124.2823 H   0  0  0  0  0  0  0  0  0  0  0  0
   41.0514    3.9256  124.8063 H   0  0  0  0  0  0  0  0  0  0  0  0
   48.2159   -3.7492  124.0304 H   0  0  0  0  0  0  0  0  0  0  0  0
   37.8276    9.7753  126.4006 H   0  0  0  0  0  0  0  0  0  0  0  0
   37.8812    8.6763  127.7991 H   0  0  0  0  0  0  0  0  0  0  0  0
   37.1883    7.3583  124.2224 H   0  0  0  0  0  0  0  0  0  0  0  0
   35.5892    8.3563  127.4234 H   0  0  0  0  0  0  0  0  0  0  0  0
   50.2459   -3.7169  122.1420 H   0  0  0  0  0  0  0  0  0  0  0  0
   49.6239   -4.8418  120.9097 H   0  0  0  0  0  0  0  0  0  0  0  0
   49.8178   -3.1350  120.5143 H   0  0  0  0  0  0  0  0  0  0  0  0
   34.8152    9.9299  125.8689 H   0  0  0  0  0  0  0  0  0  0  0  0
   34.8553    8.5289  124.7814 H   0  0  0  0  0  0  0  0  0  0  0  0
   36.1999    9.6864  124.7869 H   0  0  0  0  0  0  0  0  0  0  0  0
   45.5310   -2.4775  124.8265 H   0  0  0  0  0  0  0  0  0  0  0  0
   44.9519   -4.0701  124.3839 H   0  0  0  0  0  0  0  0  0  0  0  0
   43.7617   -2.9855  122.3941 H   0  0  0  0  0  0  0  0  0  0  0  0
   44.1251   -1.4158  123.1028 H   0  0  0  0  0  0  0  0  0  0  0  0
   42.5759   -3.6469  124.5279 H   0  0  0  0  0  0  0  0  0  0  0  0
   42.8441   -2.0164  125.1511 H   0  0  0  0  0  0  0  0  0  0  0  0
   41.3809   -2.6026  122.5296 H   0  0  0  0  0  0  0  0  0  0  0  0
   40.5657   -2.3858  124.0804 H   0  0  0  0  0  0  0  0  0  0  0  0
   42.2614   -0.3304  122.5772 H   0  0  0  0  0  0  0  0  0  0  0  0
   41.7584   -0.1035  124.2538 H   0  0  0  0  0  0  0  0  0  0  0  0
   39.9685   -0.3409  121.7836 H   0  0  0  0  0  0  0  0  0  0  0  0
   39.3229   -0.5386  123.3990 H   0  0  0  0  0  0  0  0  0  0  0  0
   39.2974    1.8584  122.2839 H   0  0  0  0  0  0  0  0  0  0  0  0
   41.0051    1.9206  122.7908 H   0  0  0  0  0  0  0  0  0  0  0  0
   35.4676    6.6344  125.5236 H   0  0  0  0  0  0  0  0  0  0  0  0
   36.3617    6.3013  126.8774 H   0  0  0  0  0  0  0  0  0  0  0  0
  1  3  4  0  0  0  0
  1  6  4  0  0  0  0
  2  4  4  0  0  0  0
  2  6  4  0  0  0  0
  3  7  4  0  0  0  0
  4  7  4  0  0  0  0
  5  8  4  0  0  0  0
  5  9  4  0  0  0  0
  6 11  1  0  0  0  0
  7 26  1  0  0  0  0
  8 13  1  0  0  0  0
  8 22  4  0  0  0  0
  9 15  1  0  0  0  0
  9 24  4  0  0  0  0
 10 12  1  0  0  0  0
 10 25  1  0  0  0  0
 11 23  1  0  0  0  0
 11 25  1  0  0  0  0
 12 14  1  0  0  0  0
 12 23  1  0  0  0  0
 15 16  1  0  0  0  0
 16 17  1  0  0  0  0
 17 18  1  0  0  0  0
 18 19  1  0  0  0  0
 19 20  1  0  0  0  0
 20 21  1  0  0  0  0
 21 26  1  0  0  0  0
 22 24  4  0  0  0  0
  1 27  1  0  0  0  0
  2 28  1  0  0  0  0
  3 29  1  0  0  0  0
  4 30  1  0  0  0  0
  5 31  1  0  0  0  0
 10 32  1  0  0  0  0
 10 33  1  0  0  0  0
 11 34  1  0  0  0  0
 12 35  1  0  0  0  0
 13 36  1  0  0  0  0
 13 37  1  0  0  0  0
 13 38  1  0  0  0  0
 14 39  1  0  0  0  0
 14 40  1  0  0  0  0
 14 41  1  0  0  0  0
 15 42  1  0  0  0  0
 15 43  1  0  0  0  0
 16 44  1  0  0  0  0
 16 45  1  0  0  0  0
 17 46  1  0  0  0  0
 17 47  1  0  0  0  0
 18 48  1  0  0  0  0
 18 49  1  0  0  0  0
 19 50  1  0  0  0  0
 19 51  1  0  0  0  0
 20 52  1  0  0  0  0
 20 53  1  0  0  0  0
 21 54  1  0  0  0  0
 21 55  1  0  0  0  0
 23 56  1  0  0  0  0
 23 57  1  0  0  0  0
M  END
>  <COMMENT>
GA Superposition Molecule

$$$$
GA ranked 1 2RS1.*


 54 56  0  0  1  0  0  0  0  0999 V2000
   37.1906    4.1880  124.7105 C   0  0  0  0  0  0  0  0  0  0  0  0
   39.4630    5.0089  124.6960 C   0  0  0  0  0  0  0  0  0  0  0  0
   37.6143    3.0044  124.1060 C   0  0  0  0  0  0  0  0  0  0  0  0
   39.8865    3.8253  124.0915 C   0  0  0  0  0  0  0  0  0  0  0  0
   38.1148    5.1902  125.0053 C   0  0  0  0  0  0  0  0  0  0  0  0
   38.9623    2.8231  123.7965 C   0  0  0  0  0  0  0  0  0  0  0  0
   47.1766   -3.8041  122.1496 C   0  0  0  0  0  0  0  0  0  0  0  0
   37.6689    6.4374  125.6427 C   0  0  0  0  0  0  0  0  0  0  0  0
   48.4219   -3.6472  122.6078 C   0  0  0  0  0  0  0  0  0  0  0  0
   46.3036   -3.2325  123.1476 C   0  0  0  0  0  0  0  0  0  0  0  0
   44.9682   -3.1696  123.1040 C   0  0  0  0  0  0  0  0  0  0  0  0
   36.3771    8.2060  125.7561 C   0  0  0  0  0  0  0  0  0  0  0  0
   37.3825    8.1939  126.8897 C   0  0  1  0  0  0  0  0  0  0  0  0
   49.7016   -4.0553  121.9839 C   0  0  0  0  0  0  0  0  0  0  0  0
   38.1355    9.5024  127.0366 C   0  0  0  0  0  0  0  0  0  0  0  0
   44.1216   -2.5588  124.1813 C   0  0  0  0  0  0  0  0  0  0  0  0
   43.4258   -1.2885  123.6882 C   0  0  0  0  0  0  0  0  0  0  0  0
   42.2944   -1.6185  122.7110 C   0  0  0  0  0  0  0  0  0  0  0  0
   41.2432   -0.5067  122.6849 C   0  0  0  0  0  0  0  0  0  0  0  0
   40.5444   -0.3009  124.0334 C   0  0  0  0  0  0  0  0  0  0  0  0
   39.2280    0.4649  123.9536 C   0  0  0  0  0  0  0  0  0  0  0  0
   38.3122    7.1043  126.5494 N   0  0  0  0  0  0  0  0  0  0  0  0
   48.3634   -3.0164  123.8181 N   0  0  0  0  0  0  0  0  0  0  0  0
   36.4739    6.9010  125.2034 O   0  0  0  0  0  0  0  0  0  0  0  0
   47.0576   -2.7299  124.2154 O   0  0  0  0  0  0  0  0  0  0  0  0
   39.3783    1.6600  123.2013 O   0  0  0  0  0  0  0  0  0  0  0  0
   36.1379    4.3194  124.9470 H   0  0  0  0  0  0  0  0  0  0  0  0
   40.1912    5.7838  124.9209 H   0  0  0  0  0  0  0  0  0  0  0  0
   36.8898    2.2274  123.8786 H   0  0  0  0  0  0  0  0  0  0  0  0
   40.9378    3.6901  123.8519 H   0  0  0  0  0  0  0  0  0  0  0  0
   46.8710   -4.2640  121.2247 H   0  0  0  0  0  0  0  0  0  0  0  0
   44.4557   -3.5740  122.2351 H   0  0  0  0  0  0  0  0  0  0  0  0
   35.3593    8.3858  126.1154 H   0  0  0  0  0  0  0  0  0  0  0  0
   36.6095    8.9366  124.9735 H   0  0  0  0  0  0  0  0  0  0  0  0
   36.8874    7.9450  127.8370 H   0  0  0  0  0  0  0  0  0  0  0  0
   50.5278   -3.4591  122.3824 H   0  0  0  0  0  0  0  0  0  0  0  0
   49.6601   -3.9146  120.8993 H   0  0  0  0  0  0  0  0  0  0  0  0
   49.9042   -5.1120  122.1841 H   0  0  0  0  0  0  0  0  0  0  0  0
   37.5557   10.2082  127.6354 H   0  0  0  0  0  0  0  0  0  0  0  0
   38.3191    9.9461  126.0557 H   0  0  0  0  0  0  0  0  0  0  0  0
   39.0959    9.3340  127.5287 H   0  0  0  0  0  0  0  0  0  0  0  0
   44.7663   -2.3210  125.0360 H   0  0  0  0  0  0  0  0  0  0  0  0
   43.3716   -3.2753  124.5384 H   0  0  0  0  0  0  0  0  0  0  0  0
   44.1554   -0.6334  123.1956 H   0  0  0  0  0  0  0  0  0  0  0  0
   43.0203   -0.7317  124.5426 H   0  0  0  0  0  0  0  0  0  0  0  0
   41.8222   -2.5644  123.0022 H   0  0  0  0  0  0  0  0  0  0  0  0
   42.7164   -1.7592  121.7094 H   0  0  0  0  0  0  0  0  0  0  0  0
   41.7271    0.4376  122.4053 H   0  0  0  0  0  0  0  0  0  0  0  0
   40.4997   -0.7182  121.9071 H   0  0  0  0  0  0  0  0  0  0  0  0
   41.2339    0.2563  124.6798 H   0  0  0  0  0  0  0  0  0  0  0  0
   40.3700   -1.2715  124.5116 H   0  0  0  0  0  0  0  0  0  0  0  0
   38.4425   -0.1374  123.4888 H   0  0  0  0  0  0  0  0  0  0  0  0
   38.8855    0.7338  124.9583 H   0  0  0  0  0  0  0  0  0  0  0  0
   49.1562   -2.7796  124.3963 H   0  0  0  0  0  0  0  0  0  0  0  0
  1  3  4  0  0  0  0
  1  5  4  0  0  0  0
  2  4  4  0  0  0  0
  2  5  4  0  0  0  0
  3  6  4  0  0  0  0
  4  6  4  0  0  0  0
  5  8  1  0  0  0  0
  6 26  1  0  0  0  0
  7  9  2  0  0  0  0
  7 10  1  0  0  0  0
  8 22  2  0  0  0  0
  8 24  1  0  0  0  0
  9 14  1  0  0  0  0
  9 23  1  0  0  0  0
 10 11  2  0  0  0  0
 10 25  1  0  0  0  0
 11 16  1  0  0  0  0
 12 13  1  0  0  0  0
 12 24  1  0  0  0  0
 13 15  1  0  0  0  0
 13 22  1  0  0  0  0
 16 17  1  0  0  0  0
 17 18  1  0  0  0  0
 18 19  1  0  0  0  0
 19 20  1  0  0  0  0
 20 21  1  0  0  0  0
 21 26  1  0  0  0  0
 23 25  1  0  0  0  0
  1 27  1  0  0  0  0
  2 28  1  0  0  0  0
  3 29  1  0  0  0  0
  4 30  1  0  0  0  0
  7 31  1  0  0  0  0
 11 32  1  0  0  0  0
 12 33  1  0  0  0  0
 12 34  1  0  0  0  0
 13 35  1  0  0  0  0
 14 36  1  0  0  0  0
 14 37  1  0  0  0  0
 14 38  1  0  0  0  0
 15 39  1  0  0  0  0
 15 40  1  0  0  0  0
 15 41  1  0  0  0  0
 16 42  1  0  0  0  0
 16 43  1  0  0  0  0
 17 44  1  0  0  0  0
 17 45  1  0  0  0  0
 18 46  1  0  0  0  0
 18 47  1  0  0  0  0
 19 48  1  0  0  0  0
 19 49  1  0  0  0  0
 20 50  1  0  0  0  0
 20 51  1  0  0  0  0
 21 52  1  0  0  0  0
 21 53  1  0  0  0  0
 23 54  1  0  0  0  0
M  END
>  <COMMENT>
GA Superposition Molecule

$$$$
GA ranked 1 2RS3.*


 57 59  0  0  1  0  0  0  0  0999 V2000
   39.3070    4.9855  124.9096 C   0  0  0  0  0  0  0  0  0  0  0  0
   36.9485    4.4895  124.7396 C   0  0  0  0  0  0  0  0  0  0  0  0
   39.6081    3.7508  124.3344 C   0  0  0  0  0  0  0  0  0  0  0  0
   37.2496    3.2551  124.1644 C   0  0  0  0  0  0  0  0  0  0  0  0
   37.9773    5.3548  125.1123 C   0  0  0  0  0  0  0  0  0  0  0  0
   38.5794    2.8857  123.9619 C   0  0  0  0  0  0  0  0  0  0  0  0
   48.4366   -3.7730  122.8185 C   0  0  0  0  0  0  0  0  0  0  0  0
   37.6596    6.6560  125.7179 C   0  0  0  0  0  0  0  0  0  0  0  0
   49.0537   -4.1256  121.6868 C   0  0  0  0  0  0  0  0  0  0  0  0
   47.0411   -3.6118  122.4845 C   0  0  0  0  0  0  0  0  0  0  0  0
   46.0525   -3.2627  123.3151 C   0  0  0  0  0  0  0  0  0  0  0  0
   36.4971    8.5120  125.8332 C   0  0  0  0  0  0  0  0  0  0  0  0
   37.5770    8.4803  126.8958 C   0  0  1  0  0  0  0  0  0  0  0  0
   50.4886   -4.4133  121.4602 C   0  0  0  0  0  0  0  0  0  0  0  0
   37.6192   10.9452  127.3066 C   0  0  0  0  0  0  0  0  0  0  0  0
   44.6194   -3.1135  122.8976 C   0  0  0  0  0  0  0  0  0  0  0  0
   38.4221    9.7394  126.9285 C   0  0  0  0  0  0  0  0  0  0  0  0
   43.9172   -2.0183  123.7027 C   0  0  0  0  0  0  0  0  0  0  0  0
   42.5899   -1.6163  123.0540 C   0  0  0  0  0  0  0  0  0  0  0  0
   41.8535   -0.5746  123.8993 C   0  0  0  0  0  0  0  0  0  0  0  0
   40.5583   -0.0732  123.2513 C   0  0  0  0  0  0  0  0  0  0  0  0
   39.6905    0.7922  124.1589 C   0  0  0  0  0  0  0  0  0  0  0  0
   38.4073    7.3158  126.5460 N   0  0  0  0  0  0  0  0  0  0  0  0
   48.1248   -4.1906  120.6874 N   0  0  0  0  0  0  0  0  0  0  0  0
   36.4693    7.1808  125.3385 O   0  0  0  0  0  0  0  0  0  0  0  0
   46.8384   -3.8759  121.1242 O   0  0  0  0  0  0  0  0  0  0  0  0
   38.8755    1.6716  123.3976 O   0  0  0  0  0  0  0  0  0  0  0  0
   40.1162    5.6521  125.1967 H   0  0  0  0  0  0  0  0  0  0  0  0
   35.9089    4.7674  124.8937 H   0  0  0  0  0  0  0  0  0  0  0  0
   40.6456    3.4687  124.1790 H   0  0  0  0  0  0  0  0  0  0  0  0
   36.4440    2.5847  123.8772 H   0  0  0  0  0  0  0  0  0  0  0  0
   48.8788   -3.6323  123.7906 H   0  0  0  0  0  0  0  0  0  0  0  0
   46.2895   -3.0836  124.3606 H   0  0  0  0  0  0  0  0  0  0  0  0
   35.5211    8.7762  126.2514 H   0  0  0  0  0  0  0  0  0  0  0  0
   36.7208    9.1904  125.0027 H   0  0  0  0  0  0  0  0  0  0  0  0
   37.1349    8.3071  127.8851 H   0  0  0  0  0  0  0  0  0  0  0  0
   50.6565   -5.4927  121.3982 H   0  0  0  0  0  0  0  0  0  0  0  0
   51.0932   -4.0118  122.2794 H   0  0  0  0  0  0  0  0  0  0  0  0
   50.8279   -3.9524  120.5273 H   0  0  0  0  0  0  0  0  0  0  0  0
   37.0965   10.7649  128.2533 H   0  0  0  0  0  0  0  0  0  0  0  0
   36.8680   11.1667  126.5410 H   0  0  0  0  0  0  0  0  0  0  0  0
   38.2683   11.8175  127.4378 H   0  0  0  0  0  0  0  0  0  0  0  0
   44.1111   -4.0726  123.0532 H   0  0  0  0  0  0  0  0  0  0  0  0
   44.5491   -2.8866  121.8267 H   0  0  0  0  0  0  0  0  0  0  0  0
   39.2414    9.6131  127.6461 H   0  0  0  0  0  0  0  0  0  0  0  0
   38.8751    9.9032  125.9438 H   0  0  0  0  0  0  0  0  0  0  0  0
   44.5685   -1.1385  123.7791 H   0  0  0  0  0  0  0  0  0  0  0  0
   43.7323   -2.3703  124.7258 H   0  0  0  0  0  0  0  0  0  0  0  0
   41.9579   -2.5039  122.9314 H   0  0  0  0  0  0  0  0  0  0  0  0
   42.7876   -1.2156  122.0534 H   0  0  0  0  0  0  0  0  0  0  0  0
   41.5985   -1.0165  124.8707 H   0  0  0  0  0  0  0  0  0  0  0  0
   42.5194    0.2715  124.1071 H   0  0  0  0  0  0  0  0  0  0  0  0
   39.9782   -0.9544  122.9505 H   0  0  0  0  0  0  0  0  0  0  0  0
   40.7935    0.4837  122.3371 H   0  0  0  0  0  0  0  0  0  0  0  0
   39.0400    0.1814  124.7912 H   0  0  0  0  0  0  0  0  0  0  0  0
   40.3202    1.3959  124.8206 H   0  0  0  0  0  0  0  0  0  0  0  0
   48.3141   -4.4240  119.7236 H   0  0  0  0  0  0  0  0  0  0  0  0
  1  3  4  0  0  0  0
  1  5  4  0  0  0  0
  2  4  4  0  0  0  0
  2  5  4  0  0  0  0
  3  6  4  0  0  0  0
  4  6  4  0  0  0  0
  5  8  1  0  0  0  0
  6 27  1  0  0  0  0
  7  9  2  0  0  0  0
  7 10  1  0  0  0  0
  8 23  2  0  0  0  0
  8 25  1  0  0  0  0
  9 14  1  0  0  0  0
  9 24  1  0  0  0  0
 10 11  2  0  0  0  0
 10 26  1  0  0  0  0
 11 16  1  0  0  0  0
 12 13  1  0  0  0  0
 12 25  1  0  0  0  0
 13 17  1  0  0  0  0
 13 23  1  0  0  0  0
 15 17  1  0  0  0  0
 16 18  1  0  0  0  0
 18 19  1  0  0  0  0
 19 20  1  0  0  0  0
 20 21  1  0  0  0  0
 21 22  1  0  0  0  0
 22 27  1  0  0  0  0
 24 26  1  0  0  0  0
  1 28  1  0  0  0  0
  2 29  1  0  0  0  0
  3 30  1  0  0  0  0
  4 31  1  0  0  0  0
  7 32  1  0  0  0  0
 11 33  1  0  0  0  0
 12 34  1  0  0  0  0
 12 35  1  0  0  0  0
 13 36  1  0  0  0  0
 14 37  1  0  0  0  0
 14 38  1  0  0  0  0
 14 39  1  0  0  0  0
 15 40  1  0  0  0  0
 15 41  1  0  0  0  0
 15 42  1  0  0  0  0
 16 43  1  0  0  0  0
 16 44  1  0  0  0  0
 17 45  1  0  0  0  0
 17 46  1  0  0  0  0
 18 47  1  0  0  0  0
 18 48  1  0  0  0  0
 19 49  1  0  0  0  0
 19 50  1  0  0  0  0
 20 51  1  0  0  0  0
 20 52  1  0  0  0  0
 21 53  1  0  0  0  0
 21 54  1  0  0  0  0
 22 55  1  0  0  0  0
 22 56  1  0  0  0  0
 24 57  1  0  0  0  0
M  END
>  <PHARMACOPHORE>
ACCEPTOR_ATOM SYMMETRIC_HET5_N ATOM_23  {VECTOR [8.474191830985163,0.8064396999275942,-10.750918554772692] [9.678131884069659,0.7548693813530925,-13.388695810497865]}
ACCEPTOR_ATOM ETHER ATOM_27  {ARC [6.664442769867606,-5.239354001148846,-12.221471433999316] [4.184935302558801,-5.070999379810827,-13.716028037488794] [6.314511417656211,-7.02958524268532,-9.96700472309709]}
AROMATIC_RING ATOMS_1_2_3_4_5_6 {VECTOR [5.252363848562912,-2.298416142367398,-11.215150953423558] [9.161906826597006,-3.1442670556465857,-11.211998905030894]}

>  <COMMENT>
GA Superposition Molecule

$$$$
GA ranked 1 2RS5.*


 51 53  0  0  1  0  0  0  0  0999 V2000
   39.3608    4.7990  124.7428 C   0  0  0  0  0  0  0  0  0  0  0  0
   37.0140    4.4732  124.2702 C   0  0  0  0  0  0  0  0  0  0  0  0
   39.6349    3.5173  124.2657 C   0  0  0  0  0  0  0  0  0  0  0  0
   37.2881    3.1915  123.7930 C   0  0  0  0  0  0  0  0  0  0  0  0
   46.1946   -3.0375  123.8742 C   0  0  0  0  0  0  0  0  0  0  0  0
   38.0504    5.2769  124.7453 C   0  0  0  0  0  0  0  0  0  0  0  0
   38.5985    2.7135  123.7907 C   0  0  0  0  0  0  0  0  0  0  0  0
   46.6589   -3.6755  122.7110 C   0  0  0  0  0  0  0  0  0  0  0  0
   45.1912   -2.2229  123.4206 C   0  0  0  0  0  0  0  0  0  0  0  0
   38.2917    8.3163  126.4952 C   0  0  0  0  0  0  0  0  0  0  0  0
   37.7544    6.6622  125.2607 C   0  0  1  0  0  0  0  0  0  0  0  0
   36.8216    8.1128  126.8281 C   0  0  1  0  0  0  0  0  0  0  0  0
   47.7396   -4.6679  122.5965 C   0  0  0  0  0  0  0  0  0  0  0  0
   36.4952    8.1728  128.3040 C   0  0  0  0  0  0  0  0  0  0  0  0
   44.2506   -1.2530  124.0900 C   0  0  0  0  0  0  0  0  0  0  0  0
   42.9151   -1.1620  123.3462 C   0  0  0  0  0  0  0  0  0  0  0  0
   41.9523   -0.2032  124.0487 C   0  0  0  0  0  0  0  0  0  0  0  0
   40.5706   -0.2284  123.3988 C   0  0  0  0  0  0  0  0  0  0  0  0
   39.5576    0.5763  124.2006 C   0  0  0  0  0  0  0  0  0  0  0  0
   45.9943   -3.2864  121.6194 N   0  0  0  0  0  0  0  0  0  0  0  0
   36.5669    6.7463  126.2865 N   0  3  0  0  0  0  0  0  0  0  0  0
   45.0620   -2.3626  122.0764 O   0  0  0  0  0  0  0  0  0  0  0  0
   38.9271    7.2392  125.7762 O   0  0  0  0  0  0  0  0  0  0  0  0
   38.8690    1.4545  123.3210 O   0  0  0  0  0  0  0  0  0  0  0  0
   40.1743    5.4184  125.1112 H   0  0  0  0  0  0  0  0  0  0  0  0
   35.9897    4.8369  124.2690 H   0  0  0  0  0  0  0  0  0  0  0  0
   40.6574    3.1498  124.2660 H   0  0  0  0  0  0  0  0  0  0  0  0
   36.4762    2.5700  123.4254 H   0  0  0  0  0  0  0  0  0  0  0  0
   46.5369   -3.1519  124.8923 H   0  0  0  0  0  0  0  0  0  0  0  0
   38.4476    9.1207  125.7707 H   0  0  0  0  0  0  0  0  0  0  0  0
   38.8920    8.5292  127.3871 H   0  0  0  0  0  0  0  0  0  0  0  0
   37.4410    7.2937  124.4059 H   0  0  0  0  0  0  0  0  0  0  0  0
   36.1899    8.7943  126.2471 H   0  0  0  0  0  0  0  0  0  0  0  0
   47.4620   -5.4865  121.9100 H   0  0  0  0  0  0  0  0  0  0  0  0
   48.6780   -4.2228  122.2194 H   0  0  0  0  0  0  0  0  0  0  0  0
   47.9931   -5.1240  123.5708 H   0  0  0  0  0  0  0  0  0  0  0  0
   36.6817    9.1761  128.6971 H   0  0  0  0  0  0  0  0  0  0  0  0
   37.1123    7.4629  128.8619 H   0  0  0  0  0  0  0  0  0  0  0  0
   35.4438    7.9249  128.4740 H   0  0  0  0  0  0  0  0  0  0  0  0
   44.0770   -1.5623  125.1289 H   0  0  0  0  0  0  0  0  0  0  0  0
   44.7164   -0.2603  124.1412 H   0  0  0  0  0  0  0  0  0  0  0  0
   43.0844   -0.8223  122.3163 H   0  0  0  0  0  0  0  0  0  0  0  0
   42.4577   -2.1573  123.2788 H   0  0  0  0  0  0  0  0  0  0  0  0
   41.8654   -0.4796  125.1066 H   0  0  0  0  0  0  0  0  0  0  0  0
   42.3568    0.8154  124.0125 H   0  0  0  0  0  0  0  0  0  0  0  0
   40.6237    0.1694  122.3777 H   0  0  0  0  0  0  0  0  0  0  0  0
   40.2162   -1.2621  123.2995 H   0  0  0  0  0  0  0  0  0  0  0  0
   40.0554    1.1743  124.9706 H   0  0  0  0  0  0  0  0  0  0  0  0
   38.8255   -0.0825  124.6786 H   0  0  0  0  0  0  0  0  0  0  0  0
   35.6339    6.6558  125.8612 H   0  0  0  0  0  0  0  0  0  0  0  0
   36.6374    6.0393  127.0320 H   0  0  0  0  0  0  0  0  0  0  0  0
  1  3  4  0  0  0  0
  1  6  4  0  0  0  0
  2  4  4  0  0  0  0
  2  6  4  0  0  0  0
  3  7  4  0  0  0  0
  4  7  4  0  0  0  0
  5  8  4  0  0  0  0
  5  9  4  0  0  0  0
  6 11  1  0  0  0  0
  7 24  1  0  0  0  0
  8 13  1  0  0  0  0
  8 20  4  0  0  0  0
  9 15  1  0  0  0  0
  9 22  4  0  0  0  0
 10 12  1  0  0  0  0
 10 23  1  0  0  0  0
 11 21  1  0  0  0  0
 11 23  1  0  0  0  0
 12 14  1  0  0  0  0
 12 21  1  0  0  0  0
 15 16  1  0  0  0  0
 16 17  1  0  0  0  0
 17 18  1  0  0  0  0
 18 19  1  0  0  0  0
 19 24  1  0  0  0  0
 20 22  4  0  0  0  0
  1 25  1  0  0  0  0
  2 26  1  0  0  0  0
  3 27  1  0  0  0  0
  4 28  1  0  0  0  0
  5 29  1  0  0  0  0
 10 30  1  0  0  0  0
 10 31  1  0  0  0  0
 11 32  1  0  0  0  0
 12 33  1  0  0  0  0
 13 34  1  0  0  0  0
 13 35  1  0  0  0  0
 13 36  1  0  0  0  0
 14 37  1  0  0  0  0
 14 38  1  0  0  0  0
 14 39  1  0  0  0  0
 15 40  1  0  0  0  0
 15 41  1  0  0  0  0
 16 42  1  0  0  0  0
 16 43  1  0  0  0  0
 17 44  1  0  0  0  0
 17 45  1  0  0  0  0
 18 46  1  0  0  0  0
 18 47  1  0  0  0  0
 19 48  1  0  0  0  0
 19 49  1  0  0  0  0
 21 50  1  0  0  0  0
 21 51  1  0  0  0  0
M  END
>  <PHARMACOPHORE>
DONOR_HYDROGEN SP3_N+H2 ATOM_51 [charged = yes] {VECTOR [8.243935551338707,-0.06757419681528498,-9.029885480247387] [10.734867999427287,-1.526458000303984,-9.307218469590119]}

>  <COMMENT>
GA Superposition Molecule

$$$$
GA ranked 1 Pharmacophore


  8  0  0  0  0  0  0  0  0  0999 V2000
   34.1906    6.3671  124.8174 Q   0  0  0  0  0  0  0  0  0  0  0  0
   46.2320   -2.7789  121.3971 Q   0  0  0  0  0  0  0  0  0  0  0  0
   35.9292    6.7966  125.5030 Q   0  0  0  0  0  0  0  0  0  0  0  0
   45.0854   -2.2104  121.9390 Q   0  0  0  0  0  0  0  0  0  0  0  0
   38.4073    7.3158  126.5460 Q   0  0  0  0  0  0  0  0  0  0  0  0
   38.8755    1.6716  123.3976 Q   0  0  0  0  0  0  0  0  0  0  0  0
   38.2783    4.1203  124.5370 Q   0  0  0  0  0  0  0  0  0  0  0  0
   36.7652    4.7555  128.3859 Q   0  0  0  0  0  0  0  0  0  0  0  0
M  END
>  <COMMENT>
Pharmacophore Points

$$$$
GA ranked 1 Pharmacophore all features


 17 10  0  0  0  0  0  0  0  0999 V2000
   36.6332    6.7891  126.3226 Q   0  0  0  0  0  0  0  0  0  0  0  0
   34.1906    6.3671  124.8174 Q   0  0  0  0  0  0  0  0  0  0  0  0
   46.2320   -2.7789  121.3971 Q   0  0  0  0  0  0  0  0  0  0  0  0
   47.0319   -2.8250  118.6100 Q   0  0  0  0  0  0  0  0  0  0  0  0
   35.9292    6.7966  125.5030 Q   0  0  0  0  0  0  0  0  0  0  0  0
   33.5048    5.4173  124.7091 Q   0  0  0  0  0  0  0  0  0  0  0  0
   45.0854   -2.2104  121.9390 Q   0  0  0  0  0  0  0  0  0  0  0  0
   43.0258   -0.8289  120.4360 Q   0  0  0  0  0  0  0  0  0  0  0  0
   38.4073    7.3158  126.5460 Q   0  0  0  0  0  0  0  0  0  0  0  0
   41.0717    6.6578  127.4830 Q   0  0  0  0  0  0  0  0  0  0  0  0
   38.8755    1.6716  123.3976 Q   0  0  0  0  0  0  0  0  0  0  0  0
   40.2392    2.1798  120.8892 Q   0  0  0  0  0  0  0  0  0  0  0  0
   36.3676    0.3120  122.8762 Q   0  0  0  0  0  0  0  0  0  0  0  0
   38.2337    4.9557  122.7204 Q   0  0  0  0  0  0  0  0  0  0  0  0
   38.3230    3.2848  126.3536 Q   0  0  0  0  0  0  0  0  0  0  0  0
   36.5669    6.7463  126.2865 Q   0  0  0  0  0  0  0  0  0  0  0  0
   36.7652    4.7555  128.3859 Q   0  0  0  0  0  0  0  0  0  0  0  0
  1  2  1  0  0  0  0
  3  4  1  0  0  0  0
  5  6  1  0  0  0  0
  7  8  1  0  0  0  0
  9 10  1  0  0  0  0
 11 12  1  0  0  0  0
 11 13  1  0  0  0  0
 12 13  1  0  0  0  0
 14 15  1  0  0  0  0
 16 17  1  0  0  0  0
M  END
>  <COMMENT>
Pharmacophore Geometry

$$$$
