GA ranked 1 2R04.*


 51 53  0  0  1  0  0  0  0  0999 V2000
    7.2913   -2.3657   -9.5053 C   0  0  0  0  0  0  0  0  0  0  0  0
    7.7522   -1.5654  -11.7378 C   0  0  0  0  0  0  0  0  0  0  0  0
    6.7858   -3.5527  -10.0352 C   0  0  0  0  0  0  0  0  0  0  0  0
    7.2468   -2.7525  -12.2677 C   0  0  0  0  0  0  0  0  0  0  0  0
    7.7745   -1.3719  -10.3566 C   0  0  0  0  0  0  0  0  0  0  0  0
    6.7636   -3.7462  -11.4164 C   0  0  0  0  0  0  0  0  0  0  0  0
    7.7410   -9.5960  -21.2625 C   0  0  0  0  0  0  0  0  0  0  0  0
    7.8107    1.9068  -10.3316 C   0  0  0  0  0  0  0  0  0  0  0  0
    7.1029   -9.0066  -22.2779 C   0  0  0  0  0  0  0  0  0  0  0  0
    7.8122   -8.6144  -20.2058 C   0  0  0  0  0  0  0  0  0  0  0  0
    8.3689   -8.7728  -18.9999 C   0  0  0  0  0  0  0  0  0  0  0  0
    7.1548    1.6888   -9.0103 C   0  0  0  0  0  0  0  0  0  0  0  0
    8.3150   -0.1030   -9.7900 C   0  0  1  0  0  0  0  0  0  0  0  0
    6.7628   -9.5591  -23.6093 C   0  0  0  0  0  0  0  0  0  0  0  0
    8.4067   -7.7053  -17.9467 C   0  0  0  0  0  0  0  0  0  0  0  0
    7.7464   -8.1796  -16.6505 C   0  0  0  0  0  0  0  0  0  0  0  0
    7.3144   -6.9956  -15.7815 C   0  0  0  0  0  0  0  0  0  0  0  0
    6.5180   -7.4651  -14.5621 C   0  0  0  0  0  0  0  0  0  0  0  0
    5.7771   -6.3297  -13.8474 C   0  0  0  0  0  0  0  0  0  0  0  0
    6.6845   -5.2599  -13.2491 C   0  0  0  0  0  0  0  0  0  0  0  0
    8.4851    0.9247  -10.8355 N   0  0  0  0  0  0  0  0  0  0  0  0
    6.7803   -7.7320  -21.9073 N   0  0  0  0  0  0  0  0  0  0  0  0
    7.2012   -7.4224  -20.6144 O   0  0  0  0  0  0  0  0  0  0  0  0
    7.4328    0.3186   -8.7401 O   0  0  0  0  0  0  0  0  0  0  0  0
    6.2675   -4.9140  -11.9363 O   0  0  0  0  0  0  0  0  0  0  0  0
    7.3048   -2.2233   -8.4280 H   0  0  0  0  0  0  0  0  0  0  0  0
    8.1258   -0.7963  -12.4089 H   0  0  0  0  0  0  0  0  0  0  0  0
    6.4107   -4.3237   -9.3677 H   0  0  0  0  0  0  0  0  0  0  0  0
    7.2312   -2.8966  -13.3445 H   0  0  0  0  0  0  0  0  0  0  0  0
    8.1307  -10.5996  -21.2263 H   0  0  0  0  0  0  0  0  0  0  0  0
    7.7158    2.8784  -10.8374 H   0  0  0  0  0  0  0  0  0  0  0  0
    8.8153   -9.7328  -18.7543 H   0  0  0  0  0  0  0  0  0  0  0  0
    7.5998    2.3304   -8.2466 H   0  0  0  0  0  0  0  0  0  0  0  0
    6.0777    1.8545   -9.0766 H   0  0  0  0  0  0  0  0  0  0  0  0
    9.2899   -0.3207   -9.3396 H   0  0  0  0  0  0  0  0  0  0  0  0
    6.1926   -8.8288  -24.1912 H   0  0  0  0  0  0  0  0  0  0  0  0
    6.1624  -10.4680  -23.5040 H   0  0  0  0  0  0  0  0  0  0  0  0
    7.6729   -9.8126  -24.1615 H   0  0  0  0  0  0  0  0  0  0  0  0
    7.8814   -6.8219  -18.3294 H   0  0  0  0  0  0  0  0  0  0  0  0
    9.4397   -7.3976  -17.7433 H   0  0  0  0  0  0  0  0  0  0  0  0
    8.4458   -8.8109  -16.0875 H   0  0  0  0  0  0  0  0  0  0  0  0
    6.8718   -8.7998  -16.8847 H   0  0  0  0  0  0  0  0  0  0  0  0
    6.7033   -6.3070  -16.3772 H   0  0  0  0  0  0  0  0  0  0  0  0
    8.2052   -6.4451  -15.4583 H   0  0  0  0  0  0  0  0  0  0  0  0
    5.7752   -8.2064  -14.8829 H   0  0  0  0  0  0  0  0  0  0  0  0
    7.1853   -7.9770  -13.8586 H   0  0  0  0  0  0  0  0  0  0  0  0
    5.1873   -6.7792  -13.0388 H   0  0  0  0  0  0  0  0  0  0  0  0
    5.0683   -5.8583  -14.5378 H   0  0  0  0  0  0  0  0  0  0  0  0
    7.7236   -5.5975  -13.2020 H   0  0  0  0  0  0  0  0  0  0  0  0
    6.6599   -4.3553  -13.8655 H   0  0  0  0  0  0  0  0  0  0  0  0
    6.3020   -7.0556  -22.4843 H   0  0  0  0  0  0  0  0  0  0  0  0
  1  3  4  0  0  0  0
  1  5  4  0  0  0  0
  2  4  4  0  0  0  0
  2  5  4  0  0  0  0
  3  6  4  0  0  0  0
  4  6  4  0  0  0  0
  5 13  1  0  0  0  0
  6 25  1  0  0  0  0
  7  9  2  0  0  0  0
  7 10  1  0  0  0  0
  8 12  1  0  0  0  0
  8 21  2  0  0  0  0
  9 14  1  0  0  0  0
  9 22  1  0  0  0  0
 10 11  2  0  0  0  0
 10 23  1  0  0  0  0
 11 15  1  0  0  0  0
 12 24  1  0  0  0  0
 13 21  1  0  0  0  0
 13 24  1  0  0  0  0
 15 16  1  0  0  0  0
 16 17  1  0  0  0  0
 17 18  1  0  0  0  0
 18 19  1  0  0  0  0
 19 20  1  0  0  0  0
 20 25  1  0  0  0  0
 22 23  1  0  0  0  0
  1 26  1  0  0  0  0
  2 27  1  0  0  0  0
  3 28  1  0  0  0  0
  4 29  1  0  0  0  0
  7 30  1  0  0  0  0
  8 31  1  0  0  0  0
 11 32  1  0  0  0  0
 12 33  1  0  0  0  0
 12 34  1  0  0  0  0
 13 35  1  0  0  0  0
 14 36  1  0  0  0  0
 14 37  1  0  0  0  0
 14 38  1  0  0  0  0
 15 39  1  0  0  0  0
 15 40  1  0  0  0  0
 16 41  1  0  0  0  0
 16 42  1  0  0  0  0
 17 43  1  0  0  0  0
 17 44  1  0  0  0  0
 18 45  1  0  0  0  0
 18 46  1  0  0  0  0
 19 47  1  0  0  0  0
 19 48  1  0  0  0  0
 20 49  1  0  0  0  0
 20 50  1  0  0  0  0
 22 51  1  0  0  0  0
M  END
>  <COMMENT>
GA Superposition Molecule

$$$$
GA ranked 1 2R06.*


 48 50  0  0  1  0  0  0  0  0999 V2000
    7.4242   -2.5286  -10.0675 C   0  0  0  0  0  0  0  0  0  0  0  0
    6.8818   -1.6052  -12.2331 C   0  0  0  0  0  0  0  0  0  0  0  0
    7.2023   -3.8145  -10.5602 C   0  0  0  0  0  0  0  0  0  0  0  0
    6.6600   -2.8911  -12.7258 C   0  0  0  0  0  0  0  0  0  0  0  0
    8.2955   -8.9676  -20.0373 C   0  0  0  0  0  0  0  0  0  0  0  0
    7.2638   -1.4239  -10.9039 C   0  0  0  0  0  0  0  0  0  0  0  0
    6.8202   -3.9958  -11.8894 C   0  0  0  0  0  0  0  0  0  0  0  0
    7.2223   -8.9263  -20.9440 C   0  0  0  0  0  0  0  0  0  0  0  0
    7.8685   -8.1925  -18.9918 C   0  0  0  0  0  0  0  0  0  0  0  0
    8.4899    1.6760   -9.1827 C   0  0  0  0  0  0  0  0  0  0  0  0
    8.5118    2.0014  -10.6618 C   0  0  0  0  0  0  0  0  0  0  0  0
    7.5039   -0.0342  -10.3715 C   0  0  1  0  0  0  0  0  0  0  0  0
    7.1237   -9.5858  -22.2561 C   0  0  0  0  0  0  0  0  0  0  0  0
    8.4808   -7.7865  -17.6751 C   0  0  0  0  0  0  0  0  0  0  0  0
    7.4100   -7.5615  -16.6036 C   0  0  0  0  0  0  0  0  0  0  0  0
    7.8778   -6.5514  -15.5545 C   0  0  0  0  0  0  0  0  0  0  0  0
    7.0294   -6.6336  -14.2873 C   0  0  0  0  0  0  0  0  0  0  0  0
    7.6463   -5.8386  -13.1454 C   0  0  0  0  0  0  0  0  0  0  0  0
    6.2073   -8.1826  -20.4952 N   0  0  0  0  0  0  0  0  0  0  0  0
    8.2734   -0.0090   -9.0866 N   0  3  0  0  0  0  0  0  0  0  0  0
    6.6237   -7.7183  -19.2533 O   0  0  0  0  0  0  0  0  0  0  0  0
    8.1548    0.7923  -11.3530 O   0  0  0  0  0  0  0  0  0  0  0  0
    6.6035   -5.2600  -12.3729 O   0  0  0  0  0  0  0  0  0  0  0  0
    7.7217   -2.3965   -9.0306 H   0  0  0  0  0  0  0  0  0  0  0  0
    6.7535   -0.7503  -12.8921 H   0  0  0  0  0  0  0  0  0  0  0  0
    7.3287   -4.6716   -9.9045 H   0  0  0  0  0  0  0  0  0  0  0  0
    6.3614   -3.0255  -13.7619 H   0  0  0  0  0  0  0  0  0  0  0  0
    9.2397   -9.4841  -20.1284 H   0  0  0  0  0  0  0  0  0  0  0  0
    9.3254    2.0901   -8.6142 H   0  0  0  0  0  0  0  0  0  0  0  0
    7.5328    1.9377   -8.7209 H   0  0  0  0  0  0  0  0  0  0  0  0
    7.8120    2.7986  -10.9270 H   0  0  0  0  0  0  0  0  0  0  0  0
    9.5164    2.2922  -10.9886 H   0  0  0  0  0  0  0  0  0  0  0  0
    6.5220    0.4289  -10.1473 H   0  0  0  0  0  0  0  0  0  0  0  0
    8.0768   -9.5236  -22.8095 H   0  0  0  0  0  0  0  0  0  0  0  0
    6.8610  -10.6554  -22.1677 H   0  0  0  0  0  0  0  0  0  0  0  0
    6.3406   -9.1353  -22.8926 H   0  0  0  0  0  0  0  0  0  0  0  0
    9.1852   -8.5589  -17.3400 H   0  0  0  0  0  0  0  0  0  0  0  0
    9.0722   -6.8713  -17.8077 H   0  0  0  0  0  0  0  0  0  0  0  0
    6.4843   -7.2024  -17.0714 H   0  0  0  0  0  0  0  0  0  0  0  0
    7.1672   -8.5132  -16.1140 H   0  0  0  0  0  0  0  0  0  0  0  0
    8.9290   -6.7407  -15.3055 H   0  0  0  0  0  0  0  0  0  0  0  0
    7.8209   -5.5379  -15.9695 H   0  0  0  0  0  0  0  0  0  0  0  0
    6.0163   -6.2609  -14.4835 H   0  0  0  0  0  0  0  0  0  0  0  0
    6.9091   -7.6794  -13.9780 H   0  0  0  0  0  0  0  0  0  0  0  0
    8.2831   -5.0349  -13.5284 H   0  0  0  0  0  0  0  0  0  0  0  0
    8.2426   -6.4870  -12.4953 H   0  0  0  0  0  0  0  0  0  0  0  0
    9.1457   -0.5510   -9.1617 H   0  0  0  0  0  0  0  0  0  0  0  0
    7.7376   -0.3919   -8.2956 H   0  0  0  0  0  0  0  0  0  0  0  0
  1  3  4  0  0  0  0
  1  6  4  0  0  0  0
  2  4  4  0  0  0  0
  2  6  4  0  0  0  0
  3  7  4  0  0  0  0
  4  7  4  0  0  0  0
  5  8  4  0  0  0  0
  5  9  4  0  0  0  0
  6 12  1  0  0  0  0
  7 23  1  0  0  0  0
  8 13  1  0  0  0  0
  8 19  4  0  0  0  0
  9 14  1  0  0  0  0
  9 21  4  0  0  0  0
 10 11  1  0  0  0  0
 10 20  1  0  0  0  0
 11 22  1  0  0  0  0
 12 20  1  0  0  0  0
 12 22  1  0  0  0  0
 14 15  1  0  0  0  0
 15 16  1  0  0  0  0
 16 17  1  0  0  0  0
 17 18  1  0  0  0  0
 18 23  1  0  0  0  0
 19 21  4  0  0  0  0
  1 24  1  0  0  0  0
  2 25  1  0  0  0  0
  3 26  1  0  0  0  0
  4 27  1  0  0  0  0
  5 28  1  0  0  0  0
 10 29  1  0  0  0  0
 10 30  1  0  0  0  0
 11 31  1  0  0  0  0
 11 32  1  0  0  0  0
 12 33  1  0  0  0  0
 13 34  1  0  0  0  0
 13 35  1  0  0  0  0
 13 36  1  0  0  0  0
 14 37  1  0  0  0  0
 14 38  1  0  0  0  0
 15 39  1  0  0  0  0
 15 40  1  0  0  0  0
 16 41  1  0  0  0  0
 16 42  1  0  0  0  0
 17 43  1  0  0  0  0
 17 44  1  0  0  0  0
 18 45  1  0  0  0  0
 18 46  1  0  0  0  0
 20 47  1  0  0  0  0
 20 48  1  0  0  0  0
M  END
>  <PHARMACOPHORE>
DONOR_HYDROGEN SP3_N+H2 ATOM_48 [charged = yes] {VECTOR [8.27339506413333,-0.009042855066949018,-9.086563856638708] [6.76377601491821,-1.0878958145294435,-6.857858712815091]}

>  <COMMENT>
GA Superposition Molecule

$$$$
GA ranked 1 2R07.*


 48 50  0  0  1  0  0  0  0  0999 V2000
    7.5380   -1.2716  -11.8788 C   0  0  0  0  0  0  0  0  0  0  0  0
    7.0559   -2.2809  -12.7120 C   0  0  0  0  0  0  0  0  0  0  0  0
    7.5532   -2.8140  -10.0192 C   0  0  0  0  0  0  0  0  0  0  0  0
    8.3582   -8.7212  -20.0642 C   0  0  0  0  0  0  0  0  0  0  0  0
    7.7868   -1.5381  -10.5323 C   0  0  0  0  0  0  0  0  0  0  0  0
    7.0711   -3.8234  -10.8525 C   0  0  0  0  0  0  0  0  0  0  0  0
    6.8224   -3.5568  -12.1989 C   0  0  0  0  0  0  0  0  0  0  0  0
    7.2590   -9.0748  -20.8658 C   0  0  0  0  0  0  0  0  0  0  0  0
    7.7852   -8.2967  -18.8947 C   0  0  0  0  0  0  0  0  0  0  0  0
    7.0187    0.9360   -8.6420 C   0  0  0  0  0  0  0  0  0  0  0  0
    7.4986    1.6564   -9.8563 C   0  0  0  0  0  0  0  0  0  0  0  0
    8.3008   -0.4588   -9.6408 C   0  0  2  0  0  0  0  0  0  0  0  0
    6.8280   -5.1835  -10.2866 C   0  0  0  0  0  0  0  0  0  0  0  0
    7.2768   -9.6016  -22.2399 C   0  0  0  0  0  0  0  0  0  0  0  0
    8.3359   -7.7753  -17.5915 C   0  0  0  0  0  0  0  0  0  0  0  0
    7.2210   -7.2593  -16.6773 C   0  0  0  0  0  0  0  0  0  0  0  0
    7.7619   -6.8931  -15.2941 C   0  0  0  0  0  0  0  0  0  0  0  0
    6.6316   -6.5260  -14.3350 C   0  0  0  0  0  0  0  0  0  0  0  0
    7.1392   -5.7119  -13.1533 C   0  0  0  0  0  0  0  0  0  0  0  0
    6.0935   -8.8841  -20.2412 N   0  0  0  0  0  0  0  0  0  0  0  0
    7.4343   -0.2755   -8.4603 N   0  0  0  0  0  0  0  0  0  0  0  0
    6.4340   -8.3892  -18.9880 O   0  0  0  0  0  0  0  0  0  0  0  0
    8.4236    0.7364  -10.4264 O   0  0  0  0  0  0  0  0  0  0  0  0
    6.3491   -4.5372  -13.0318 O   0  0  0  0  0  0  0  0  0  0  0  0
    7.7164   -0.2803  -12.2866 H   0  0  0  0  0  0  0  0  0  0  0  0
    6.8641   -2.0667  -13.7598 H   0  0  0  0  0  0  0  0  0  0  0  0
    7.7481   -3.0212   -8.9695 H   0  0  0  0  0  0  0  0  0  0  0  0
    9.4113   -8.7681  -20.2997 H   0  0  0  0  0  0  0  0  0  0  0  0
    6.3414    1.4394   -7.9374 H   0  0  0  0  0  0  0  0  0  0  0  0
    6.6756    1.8499  -10.5474 H   0  0  0  0  0  0  0  0  0  0  0  0
    8.0005    2.5866   -9.5808 H   0  0  0  0  0  0  0  0  0  0  0  0
    9.3054   -0.7425   -9.3064 H   0  0  0  0  0  0  0  0  0  0  0  0
    6.7860   -5.1381   -9.1920 H   0  0  0  0  0  0  0  0  0  0  0  0
    5.8839   -5.6036  -10.6551 H   0  0  0  0  0  0  0  0  0  0  0  0
    7.6227   -5.8819  -10.5771 H   0  0  0  0  0  0  0  0  0  0  0  0
    6.2880   -9.9963  -22.5316 H   0  0  0  0  0  0  0  0  0  0  0  0
    7.5572   -8.8301  -22.9798 H   0  0  0  0  0  0  0  0  0  0  0  0
    8.0101  -10.4189  -22.3648 H   0  0  0  0  0  0  0  0  0  0  0  0
    8.8966   -8.5697  -17.0817 H   0  0  0  0  0  0  0  0  0  0  0  0
    9.0570   -6.9715  -17.7888 H   0  0  0  0  0  0  0  0  0  0  0  0
    6.7452   -6.3798  -17.1296 H   0  0  0  0  0  0  0  0  0  0  0  0
    6.4397   -8.0231  -16.5751 H   0  0  0  0  0  0  0  0  0  0  0  0
    8.3296   -7.7382  -14.8861 H   0  0  0  0  0  0  0  0  0  0  0  0
    8.4567   -6.0492  -15.3830 H   0  0  0  0  0  0  0  0  0  0  0  0
    5.8561   -5.9562  -14.8621 H   0  0  0  0  0  0  0  0  0  0  0  0
    6.1375   -7.4332  -13.9653 H   0  0  0  0  0  0  0  0  0  0  0  0
    8.1825   -5.4161  -13.3022 H   0  0  0  0  0  0  0  0  0  0  0  0
    7.0597   -6.2829  -12.2226 H   0  0  0  0  0  0  0  0  0  0  0  0
  1  2  4  0  0  0  0
  1  5  4  0  0  0  0
  2  7  4  0  0  0  0
  3  5  4  0  0  0  0
  3  6  4  0  0  0  0
  4  8  4  0  0  0  0
  4  9  4  0  0  0  0
  5 12  1  0  0  0  0
  6  7  4  0  0  0  0
  6 13  1  0  0  0  0
  7 24  1  0  0  0  0
  8 14  1  0  0  0  0
  8 20  4  0  0  0  0
  9 15  1  0  0  0  0
  9 22  4  0  0  0  0
 10 11  1  0  0  0  0
 10 21  2  0  0  0  0
 11 23  1  0  0  0  0
 12 21  1  0  0  0  0
 12 23  1  0  0  0  0
 15 16  1  0  0  0  0
 16 17  1  0  0  0  0
 17 18  1  0  0  0  0
 18 19  1  0  0  0  0
 19 24  1  0  0  0  0
 20 22  4  0  0  0  0
  1 25  1  0  0  0  0
  2 26  1  0  0  0  0
  3 27  1  0  0  0  0
  4 28  1  0  0  0  0
 10 29  1  0  0  0  0
 11 30  1  0  0  0  0
 11 31  1  0  0  0  0
 12 32  1  0  0  0  0
 13 33  1  0  0  0  0
 13 34  1  0  0  0  0
 13 35  1  0  0  0  0
 14 36  1  0  0  0  0
 14 37  1  0  0  0  0
 14 38  1  0  0  0  0
 15 39  1  0  0  0  0
 15 40  1  0  0  0  0
 16 41  1  0  0  0  0
 16 42  1  0  0  0  0
 17 43  1  0  0  0  0
 17 44  1  0  0  0  0
 18 45  1  0  0  0  0
 18 46  1  0  0  0  0
 19 47  1  0  0  0  0
 19 48  1  0  0  0  0
M  END
>  <PHARMACOPHORE>
ACCEPTOR_ATOM ASYMMETRIC_HET5_N ATOM_20  {VECTOR [6.093525168830606,-8.884116640398094,-20.24124011454202] [3.432297965876458,-9.392420297754363,-21.275405075355852]}
ACCEPTOR_ATOM SYMMETRIC_HET5_N ATOM_21  {VECTOR [7.434341585017785,-0.2754998563746156,-8.460274930281587] [6.827738326925602,-2.1292793993393637,-6.314224163557427]}
ACCEPTOR_ATOM HET5_O_AROMATIC ATOM_22  {VECTOR [6.433994727372319,-8.389163709542883,-18.988037303364095] [4.554174671006719,-7.667465927192716,-16.901070876553046]}

>  <COMMENT>
GA Superposition Molecule

$$$$
GA ranked 1 2RM2.* Base Molecule


 57 59  0  0  1  0  0  0  0  0999 V2000
    7.3709   -1.8020  -12.2165 C   0  0  0  0  0  0  0  0  0  0  0  0
    6.9759   -3.0978  -12.5485 C   0  0  0  0  0  0  0  0  0  0  0  0
    7.3960   -2.4087   -9.8780 C   0  0  0  0  0  0  0  0  0  0  0  0
    7.1232   -9.5924  -21.0445 C   0  0  0  0  0  0  0  0  0  0  0  0
    7.5810   -1.4574  -10.8812 C   0  0  0  0  0  0  0  0  0  0  0  0
    6.7909   -4.0492  -11.5453 C   0  0  0  0  0  0  0  0  0  0  0  0
    7.0010   -3.7046  -10.2100 C   0  0  0  0  0  0  0  0  0  0  0  0
    7.5807   -8.9372  -22.2008 C   0  0  0  0  0  0  0  0  0  0  0  0
    8.0756   -9.2984  -20.1051 C   0  0  0  0  0  0  0  0  0  0  0  0
    7.5505    2.0791   -9.5309 C   0  0  0  0  0  0  0  0  0  0  0  0
    8.0099   -0.0562  -10.5229 C   0  0  2  0  0  0  0  0  0  0  0  0
    8.8492    1.5108   -8.9827 C   0  0  1  0  0  0  0  0  0  0  0  0
    6.9491   -8.9059  -23.5298 C   0  0  0  0  0  0  0  0  0  0  0  0
   10.0959    1.9869   -9.6953 C   0  0  0  0  0  0  0  0  0  0  0  0
    8.2511   -9.6526  -18.6491 C   0  0  0  0  0  0  0  0  0  0  0  0
    7.5502   -8.6742  -17.7000 C   0  0  0  0  0  0  0  0  0  0  0  0
    8.3609   -7.4012  -17.4376 C   0  0  0  0  0  0  0  0  0  0  0  0
    7.5911   -6.4294  -16.5405 C   0  0  0  0  0  0  0  0  0  0  0  0
    7.6512   -6.8600  -15.0741 C   0  0  0  0  0  0  0  0  0  0  0  0
    6.9403   -5.8549  -14.1704 C   0  0  0  0  0  0  0  0  0  0  0  0
    7.3043   -6.0599  -12.7067 C   0  0  0  0  0  0  0  0  0  0  0  0
    8.7292   -8.2866  -21.9944 N   0  0  0  0  0  0  0  0  0  0  0  0
    8.6616    0.0403   -9.1728 N   0  3  0  0  0  0  0  0  0  0  0  0
    9.0395   -8.5197  -20.6599 O   0  0  0  0  0  0  0  0  0  0  0  0
    6.7894    1.0738  -10.2853 O   0  0  0  0  0  0  0  0  0  0  0  0
    6.4024   -5.3149  -11.9004 O   0  0  0  0  0  0  0  0  0  0  0  0
    6.7767   -4.8604   -8.9493 Cl  0  0  0  0  0  0  0  0  0  0  0  0
    7.5136   -1.0674  -13.0045 H   0  0  0  0  0  0  0  0  0  0  0  0
    6.8130   -3.3590  -13.5905 H   0  0  0  0  0  0  0  0  0  0  0  0
    7.5621   -2.1336   -8.8388 H   0  0  0  0  0  0  0  0  0  0  0  0
    6.2329  -10.1895  -20.9116 H   0  0  0  0  0  0  0  0  0  0  0  0
    6.9314    2.5328   -8.7519 H   0  0  0  0  0  0  0  0  0  0  0  0
    7.7208    2.8204  -10.3204 H   0  0  0  0  0  0  0  0  0  0  0  0
    8.7735    0.2775  -11.2551 H   0  0  0  0  0  0  0  0  0  0  0  0
    8.9170    1.6695   -7.9008 H   0  0  0  0  0  0  0  0  0  0  0  0
    5.9326   -8.4783  -23.4813 H   0  0  0  0  0  0  0  0  0  0  0  0
    7.5278   -8.3041  -24.2536 H   0  0  0  0  0  0  0  0  0  0  0  0
    6.8641   -9.9133  -23.9761 H   0  0  0  0  0  0  0  0  0  0  0  0
    9.8578    2.8079  -10.3776 H   0  0  0  0  0  0  0  0  0  0  0  0
   10.5399    1.1734  -10.2762 H   0  0  0  0  0  0  0  0  0  0  0  0
   10.8381    2.3413   -8.9744 H   0  0  0  0  0  0  0  0  0  0  0  0
    9.3167   -9.7152  -18.3943 H   0  0  0  0  0  0  0  0  0  0  0  0
    7.8435  -10.6583  -18.4812 H   0  0  0  0  0  0  0  0  0  0  0  0
    7.3816   -9.1887  -16.7456 H   0  0  0  0  0  0  0  0  0  0  0  0
    6.5612   -8.4063  -18.0920 H   0  0  0  0  0  0  0  0  0  0  0  0
    9.3134   -7.6634  -16.9614 H   0  0  0  0  0  0  0  0  0  0  0  0
    8.5966   -6.9039  -18.3853 H   0  0  0  0  0  0  0  0  0  0  0  0
    8.0115   -5.4218  -16.6451 H   0  0  0  0  0  0  0  0  0  0  0  0
    6.5448   -6.3791  -16.8657 H   0  0  0  0  0  0  0  0  0  0  0  0
    8.6983   -6.9575  -14.7625 H   0  0  0  0  0  0  0  0  0  0  0  0
    7.1871   -7.8473  -14.9616 H   0  0  0  0  0  0  0  0  0  0  0  0
    7.1950   -4.8299  -14.4677 H   0  0  0  0  0  0  0  0  0  0  0  0
    5.8529   -5.9401  -14.2895 H   0  0  0  0  0  0  0  0  0  0  0  0
    8.3220   -5.7106  -12.5046 H   0  0  0  0  0  0  0  0  0  0  0  0
    7.2283   -7.1162  -12.4295 H   0  0  0  0  0  0  0  0  0  0  0  0
    8.1008   -0.3780   -8.4177 H   0  0  0  0  0  0  0  0  0  0  0  0
    9.5661   -0.4512   -9.1863 H   0  0  0  0  0  0  0  0  0  0  0  0
  1  2  4  0  0  0  0
  1  5  4  0  0  0  0
  2  6  4  0  0  0  0
  3  5  4  0  0  0  0
  3  7  4  0  0  0  0
  4  8  4  0  0  0  0
  4  9  4  0  0  0  0
  5 11  1  0  0  0  0
  6  7  4  0  0  0  0
  6 26  1  0  0  0  0
  7 27  1  0  0  0  0
  8 13  1  0  0  0  0
  8 22  4  0  0  0  0
  9 15  1  0  0  0  0
  9 24  4  0  0  0  0
 10 12  1  0  0  0  0
 10 25  1  0  0  0  0
 11 23  1  0  0  0  0
 11 25  1  0  0  0  0
 12 14  1  0  0  0  0
 12 23  1  0  0  0  0
 15 16  1  0  0  0  0
 16 17  1  0  0  0  0
 17 18  1  0  0  0  0
 18 19  1  0  0  0  0
 19 20  1  0  0  0  0
 20 21  1  0  0  0  0
 21 26  1  0  0  0  0
 22 24  4  0  0  0  0
  1 28  1  0  0  0  0
  2 29  1  0  0  0  0
  3 30  1  0  0  0  0
  4 31  1  0  0  0  0
 10 32  1  0  0  0  0
 10 33  1  0  0  0  0
 11 34  1  0  0  0  0
 12 35  1  0  0  0  0
 13 36  1  0  0  0  0
 13 37  1  0  0  0  0
 13 38  1  0  0  0  0
 14 39  1  0  0  0  0
 14 40  1  0  0  0  0
 14 41  1  0  0  0  0
 15 42  1  0  0  0  0
 15 43  1  0  0  0  0
 16 44  1  0  0  0  0
 16 45  1  0  0  0  0
 17 46  1  0  0  0  0
 17 47  1  0  0  0  0
 18 48  1  0  0  0  0
 18 49  1  0  0  0  0
 19 50  1  0  0  0  0
 19 51  1  0  0  0  0
 20 52  1  0  0  0  0
 20 53  1  0  0  0  0
 21 54  1  0  0  0  0
 21 55  1  0  0  0  0
 23 56  1  0  0  0  0
 23 57  1  0  0  0  0
M  END
>  <COMMENT>
GA Superposition Molecule

$$$$
GA ranked 1 2RR1.*


 57 59  0  0  1  0  0  0  0  0999 V2000
    7.2288   -2.4879  -10.1036 C   0  0  0  0  0  0  0  0  0  0  0  0
    7.4506   -1.2621  -12.1736 C   0  0  0  0  0  0  0  0  0  0  0  0
    7.3220   -3.6898  -10.8052 C   0  0  0  0  0  0  0  0  0  0  0  0
    7.5439   -2.4640  -12.8754 C   0  0  0  0  0  0  0  0  0  0  0  0
    8.0190   -9.0688  -21.6183 C   0  0  0  0  0  0  0  0  0  0  0  0
    7.2931   -1.2741  -10.7877 C   0  0  0  0  0  0  0  0  0  0  0  0
    7.4796   -3.6779  -12.1911 C   0  0  0  0  0  0  0  0  0  0  0  0
    6.7553   -9.2762  -22.1976 C   0  0  0  0  0  0  0  0  0  0  0  0
    7.7546   -8.9981  -20.2763 C   0  0  0  0  0  0  0  0  0  0  0  0
    8.3076    2.1250   -9.7541 C   0  0  0  0  0  0  0  0  0  0  0  0
    7.1927    0.0258  -10.0287 C   0  0  1  0  0  0  0  0  0  0  0  0
    8.0653    1.4798   -8.3994 C   0  0  2  0  0  0  0  0  0  0  0  0
    6.4312   -9.4295  -23.6250 C   0  0  0  0  0  0  0  0  0  0  0  0
    6.8058    1.9400   -7.6987 C   0  0  0  0  0  0  0  0  0  0  0  0
    8.6121   -8.7941  -19.0518 C   0  0  0  0  0  0  0  0  0  0  0  0
    7.7981   -8.5147  -17.7833 C   0  0  0  0  0  0  0  0  0  0  0  0
    8.6222   -8.6347  -16.4977 C   0  0  0  0  0  0  0  0  0  0  0  0
    7.7370   -8.4940  -15.2574 C   0  0  0  0  0  0  0  0  0  0  0  0
    7.2166   -7.0638  -15.1050 C   0  0  0  0  0  0  0  0  0  0  0  0
    6.5628   -6.8529  -13.7412 C   0  0  0  0  0  0  0  0  0  0  0  0
    6.3692   -5.3748  -13.4336 C   0  0  0  0  0  0  0  0  0  0  0  0
    5.7815   -9.3301  -21.2847 N   0  0  0  0  0  0  0  0  0  0  0  0
    7.9760    0.0291   -8.7468 N   0  3  0  0  0  0  0  0  0  0  0  0
    6.4225   -9.1527  -20.0644 O   0  0  0  0  0  0  0  0  0  0  0  0
    7.8845    1.3737  -10.7457 O   0  0  0  0  0  0  0  0  0  0  0  0
    7.5720   -4.8595  -12.8797 O   0  0  0  0  0  0  0  0  0  0  0  0
    7.1063   -2.5065   -9.0239 H   0  0  0  0  0  0  0  0  0  0  0  0
    7.5010   -0.3211  -12.7153 H   0  0  0  0  0  0  0  0  0  0  0  0
    7.2714   -4.6326  -10.2675 H   0  0  0  0  0  0  0  0  0  0  0  0
    7.6654   -2.4479  -13.9550 H   0  0  0  0  0  0  0  0  0  0  0  0
    8.9807   -8.9837  -22.1029 H   0  0  0  0  0  0  0  0  0  0  0  0
    7.7637    3.0698   -9.8686 H   0  0  0  0  0  0  0  0  0  0  0  0
    9.3691    2.3061   -9.9460 H   0  0  0  0  0  0  0  0  0  0  0  0
    6.1336    0.1851   -9.7397 H   0  0  0  0  0  0  0  0  0  0  0  0
    8.9461    1.5832   -7.7562 H   0  0  0  0  0  0  0  0  0  0  0  0
    7.2460   -9.0490  -24.2650 H   0  0  0  0  0  0  0  0  0  0  0  0
    6.2565  -10.4846  -23.9032 H   0  0  0  0  0  0  0  0  0  0  0  0
    5.5094   -8.8880  -23.9049 H   0  0  0  0  0  0  0  0  0  0  0  0
    7.0453    2.6680   -6.9184 H   0  0  0  0  0  0  0  0  0  0  0  0
    6.2937    1.0924   -7.2344 H   0  0  0  0  0  0  0  0  0  0  0  0
    6.1208    2.4096   -8.4104 H   0  0  0  0  0  0  0  0  0  0  0  0
    9.3303   -7.9808  -19.2165 H   0  0  0  0  0  0  0  0  0  0  0  0
    9.2146   -9.6978  -18.8909 H   0  0  0  0  0  0  0  0  0  0  0  0
    6.9734   -9.2375  -17.7432 H   0  0  0  0  0  0  0  0  0  0  0  0
    7.3414   -7.5187  -17.8360 H   0  0  0  0  0  0  0  0  0  0  0  0
    9.1312   -9.6060  -16.4764 H   0  0  0  0  0  0  0  0  0  0  0  0
    9.3973   -7.8602  -16.4745 H   0  0  0  0  0  0  0  0  0  0  0  0
    6.8902   -9.1872  -15.3300 H   0  0  0  0  0  0  0  0  0  0  0  0
    8.3087   -8.7737  -14.3640 H   0  0  0  0  0  0  0  0  0  0  0  0
    6.4893   -6.8511  -15.8980 H   0  0  0  0  0  0  0  0  0  0  0  0
    8.0455   -6.3560  -15.2282 H   0  0  0  0  0  0  0  0  0  0  0  0
    5.5916   -7.3620  -13.7024 H   0  0  0  0  0  0  0  0  0  0  0  0
    7.1729   -7.3110  -12.9527 H   0  0  0  0  0  0  0  0  0  0  0  0
    5.5619   -5.2290  -12.7088 H   0  0  0  0  0  0  0  0  0  0  0  0
    6.1366   -4.8135  -14.3441 H   0  0  0  0  0  0  0  0  0  0  0  0
    7.4642   -0.4955   -8.0239 H   0  0  0  0  0  0  0  0  0  0  0  0
    8.9054   -0.4049   -8.8350 H   0  0  0  0  0  0  0  0  0  0  0  0
  1  3  4  0  0  0  0
  1  6  4  0  0  0  0
  2  4  4  0  0  0  0
  2  6  4  0  0  0  0
  3  7  4  0  0  0  0
  4  7  4  0  0  0  0
  5  8  4  0  0  0  0
  5  9  4  0  0  0  0
  6 11  1  0  0  0  0
  7 26  1  0  0  0  0
  8 13  1  0  0  0  0
  8 22  4  0  0  0  0
  9 15  1  0  0  0  0
  9 24  4  0  0  0  0
 10 12  1  0  0  0  0
 10 25  1  0  0  0  0
 11 23  1  0  0  0  0
 11 25  1  0  0  0  0
 12 14  1  0  0  0  0
 12 23  1  0  0  0  0
 15 16  1  0  0  0  0
 16 17  1  0  0  0  0
 17 18  1  0  0  0  0
 18 19  1  0  0  0  0
 19 20  1  0  0  0  0
 20 21  1  0  0  0  0
 21 26  1  0  0  0  0
 22 24  4  0  0  0  0
  1 27  1  0  0  0  0
  2 28  1  0  0  0  0
  3 29  1  0  0  0  0
  4 30  1  0  0  0  0
  5 31  1  0  0  0  0
 10 32  1  0  0  0  0
 10 33  1  0  0  0  0
 11 34  1  0  0  0  0
 12 35  1  0  0  0  0
 13 36  1  0  0  0  0
 13 37  1  0  0  0  0
 13 38  1  0  0  0  0
 14 39  1  0  0  0  0
 14 40  1  0  0  0  0
 14 41  1  0  0  0  0
 15 42  1  0  0  0  0
 15 43  1  0  0  0  0
 16 44  1  0  0  0  0
 16 45  1  0  0  0  0
 17 46  1  0  0  0  0
 17 47  1  0  0  0  0
 18 48  1  0  0  0  0
 18 49  1  0  0  0  0
 19 50  1  0  0  0  0
 19 51  1  0  0  0  0
 20 52  1  0  0  0  0
 20 53  1  0  0  0  0
 21 54  1  0  0  0  0
 21 55  1  0  0  0  0
 23 56  1  0  0  0  0
 23 57  1  0  0  0  0
M  END
>  <COMMENT>
GA Superposition Molecule

$$$$
GA ranked 1 2RS1.*


 54 56  0  0  1  0  0  0  0  0999 V2000
    7.3012   -2.7788  -10.1156 C   0  0  0  0  0  0  0  0  0  0  0  0
    7.2336   -1.6556  -12.2537 C   0  0  0  0  0  0  0  0  0  0  0  0
    6.9940   -3.9873  -10.7407 C   0  0  0  0  0  0  0  0  0  0  0  0
    6.9264   -2.8642  -12.8787 C   0  0  0  0  0  0  0  0  0  0  0  0
    7.4208   -1.6130  -10.8720 C   0  0  0  0  0  0  0  0  0  0  0  0
    6.8066   -4.0300  -12.1223 C   0  0  0  0  0  0  0  0  0  0  0  0
    7.1027   -9.5807  -21.2442 C   0  0  0  0  0  0  0  0  0  0  0  0
    7.7450   -0.3393  -10.2137 C   0  0  0  0  0  0  0  0  0  0  0  0
    7.5838   -9.1513  -22.4145 C   0  0  0  0  0  0  0  0  0  0  0  0
    7.9020   -8.9477  -20.2218 C   0  0  0  0  0  0  0  0  0  0  0  0
    7.7720   -9.0912  -18.8983 C   0  0  0  0  0  0  0  0  0  0  0  0
    7.3980    1.2057   -8.6965 C   0  0  0  0  0  0  0  0  0  0  0  0
    8.5608    1.5773   -9.5943 C   0  0  1  0  0  0  0  0  0  0  0  0
    7.1357   -9.4888  -23.7852 C   0  0  0  0  0  0  0  0  0  0  0  0
    8.4599    2.9834  -10.1541 C   0  0  0  0  0  0  0  0  0  0  0  0
    8.6415   -8.3999  -17.8902 C   0  0  0  0  0  0  0  0  0  0  0  0
    7.8453   -7.3759  -17.0786 C   0  0  0  0  0  0  0  0  0  0  0  0
    6.9026   -8.0641  -16.0878 C   0  0  0  0  0  0  0  0  0  0  0  0
    6.5764   -7.1481  -14.9062 C   0  0  0  0  0  0  0  0  0  0  0  0
    7.8067   -6.7704  -14.0739 C   0  0  0  0  0  0  0  0  0  0  0  0
    7.4890   -6.2389  -12.6802 C   0  0  0  0  0  0  0  0  0  0  0  0
    8.5184    0.5886  -10.6843 N   0  0  0  0  0  0  0  0  0  0  0  0
    8.6221   -8.2977  -22.1707 N   0  0  0  0  0  0  0  0  0  0  0  0
    7.1497   -0.1572   -9.0102 O   0  0  0  0  0  0  0  0  0  0  0  0
    8.8744   -8.1289  -20.8095 O   0  0  0  0  0  0  0  0  0  0  0  0
    6.5035   -5.2179  -12.7363 O   0  0  0  0  0  0  0  0  0  0  0  0
    7.4447   -2.7564   -9.0384 H   0  0  0  0  0  0  0  0  0  0  0  0
    7.3239   -0.7528  -12.8523 H   0  0  0  0  0  0  0  0  0  0  0  0
    6.9020   -4.8921  -10.1463 H   0  0  0  0  0  0  0  0  0  0  0  0
    6.7806   -2.8911  -13.9552 H   0  0  0  0  0  0  0  0  0  0  0  0
    6.2850  -10.2628  -21.0816 H   0  0  0  0  0  0  0  0  0  0  0  0
    6.9853   -9.7383  -18.5193 H   0  0  0  0  0  0  0  0  0  0  0  0
    7.6526    1.3056   -7.6370 H   0  0  0  0  0  0  0  0  0  0  0  0
    6.4889    1.7832   -8.8972 H   0  0  0  0  0  0  0  0  0  0  0  0
    9.5107    1.4615   -9.0570 H   0  0  0  0  0  0  0  0  0  0  0  0
    7.4396   -8.7084  -24.4891 H   0  0  0  0  0  0  0  0  0  0  0  0
    6.0460   -9.5848  -23.8184 H   0  0  0  0  0  0  0  0  0  0  0  0
    7.5726  -10.4394  -24.1066 H   0  0  0  0  0  0  0  0  0  0  0  0
    8.8573    3.7059   -9.4379 H   0  0  0  0  0  0  0  0  0  0  0  0
    7.4175    3.2350  -10.3611 H   0  0  0  0  0  0  0  0  0  0  0  0
    9.0293    3.0635  -11.0827 H   0  0  0  0  0  0  0  0  0  0  0  0
    9.4580   -7.8976  -18.4228 H   0  0  0  0  0  0  0  0  0  0  0  0
    9.1043   -9.1281  -17.2127 H   0  0  0  0  0  0  0  0  0  0  0  0
    7.2627   -6.7383  -17.7555 H   0  0  0  0  0  0  0  0  0  0  0  0
    8.5338   -6.7188  -16.5322 H   0  0  0  0  0  0  0  0  0  0  0  0
    7.3667   -8.9873  -15.7205 H   0  0  0  0  0  0  0  0  0  0  0  0
    5.9808   -8.3471  -16.6086 H   0  0  0  0  0  0  0  0  0  0  0  0
    6.1247   -6.2224  -15.2843 H   0  0  0  0  0  0  0  0  0  0  0  0
    5.8236   -7.6234  -14.2660 H   0  0  0  0  0  0  0  0  0  0  0  0
    8.3530   -5.9960  -14.6267 H   0  0  0  0  0  0  0  0  0  0  0  0
    8.4748   -7.6349  -13.9879 H   0  0  0  0  0  0  0  0  0  0  0  0
    7.1242   -7.0331  -12.0229 H   0  0  0  0  0  0  0  0  0  0  0  0
    8.3903   -5.8197  -12.2209 H   0  0  0  0  0  0  0  0  0  0  0  0
    9.1776   -7.8323  -22.8734 H   0  0  0  0  0  0  0  0  0  0  0  0
  1  3  4  0  0  0  0
  1  5  4  0  0  0  0
  2  4  4  0  0  0  0
  2  5  4  0  0  0  0
  3  6  4  0  0  0  0
  4  6  4  0  0  0  0
  5  8  1  0  0  0  0
  6 26  1  0  0  0  0
  7  9  2  0  0  0  0
  7 10  1  0  0  0  0
  8 22  2  0  0  0  0
  8 24  1  0  0  0  0
  9 14  1  0  0  0  0
  9 23  1  0  0  0  0
 10 11  2  0  0  0  0
 10 25  1  0  0  0  0
 11 16  1  0  0  0  0
 12 13  1  0  0  0  0
 12 24  1  0  0  0  0
 13 15  1  0  0  0  0
 13 22  1  0  0  0  0
 16 17  1  0  0  0  0
 17 18  1  0  0  0  0
 18 19  1  0  0  0  0
 19 20  1  0  0  0  0
 20 21  1  0  0  0  0
 21 26  1  0  0  0  0
 23 25  1  0  0  0  0
  1 27  1  0  0  0  0
  2 28  1  0  0  0  0
  3 29  1  0  0  0  0
  4 30  1  0  0  0  0
  7 31  1  0  0  0  0
 11 32  1  0  0  0  0
 12 33  1  0  0  0  0
 12 34  1  0  0  0  0
 13 35  1  0  0  0  0
 14 36  1  0  0  0  0
 14 37  1  0  0  0  0
 14 38  1  0  0  0  0
 15 39  1  0  0  0  0
 15 40  1  0  0  0  0
 15 41  1  0  0  0  0
 16 42  1  0  0  0  0
 16 43  1  0  0  0  0
 17 44  1  0  0  0  0
 17 45  1  0  0  0  0
 18 46  1  0  0  0  0
 18 47  1  0  0  0  0
 19 48  1  0  0  0  0
 19 49  1  0  0  0  0
 20 50  1  0  0  0  0
 20 51  1  0  0  0  0
 21 52  1  0  0  0  0
 21 53  1  0  0  0  0
 23 54  1  0  0  0  0
M  END
>  <COMMENT>
GA Superposition Molecule

$$$$
GA ranked 1 2RS3.*


 57 59  0  0  1  0  0  0  0  0999 V2000
    7.4382   -1.6565  -12.0845 C   0  0  0  0  0  0  0  0  0  0  0  0
    7.2504   -2.5165   -9.8345 C   0  0  0  0  0  0  0  0  0  0  0  0
    7.1639   -2.9263  -12.5927 C   0  0  0  0  0  0  0  0  0  0  0  0
    6.9760   -3.7861  -10.3427 C   0  0  0  0  0  0  0  0  0  0  0  0
    7.4815   -1.4516  -10.7054 C   0  0  0  0  0  0  0  0  0  0  0  0
    6.9329   -3.9910  -11.7218 C   0  0  0  0  0  0  0  0  0  0  0  0
    7.8173   -9.2270  -22.4275 C   0  0  0  0  0  0  0  0  0  0  0  0
    7.7700   -0.1136  -10.1695 C   0  0  0  0  0  0  0  0  0  0  0  0
    6.8258   -9.7134  -23.1798 C   0  0  0  0  0  0  0  0  0  0  0  0
    7.3795   -9.3447  -21.0566 C   0  0  0  0  0  0  0  0  0  0  0  0
    8.0579   -8.9787  -19.9635 C   0  0  0  0  0  0  0  0  0  0  0  0
    7.4130    1.5353   -8.7684 C   0  0  0  0  0  0  0  0  0  0  0  0
    8.5150    1.8839   -9.7484 C   0  0  1  0  0  0  0  0  0  0  0  0
    6.7471   -9.8290  -24.6541 C   0  0  0  0  0  0  0  0  0  0  0  0
    8.3796    4.3594   -9.4321 C   0  0  0  0  0  0  0  0  0  0  0  0
    7.5393   -9.1310  -18.5641 C   0  0  0  0  0  0  0  0  0  0  0  0
    8.3188    3.2320  -10.4154 C   0  0  0  0  0  0  0  0  0  0  0  0
    8.0459   -8.0068  -17.6583 C   0  0  0  0  0  0  0  0  0  0  0  0
    7.2527   -7.9473  -16.3501 C   0  0  0  0  0  0  0  0  0  0  0  0
    7.8082   -6.8715  -15.4142 C   0  0  0  0  0  0  0  0  0  0  0  0
    6.9958   -6.7110  -14.1246 C   0  0  0  0  0  0  0  0  0  0  0  0
    7.6432   -5.8120  -13.0766 C   0  0  0  0  0  0  0  0  0  0  0  0
    8.4742    0.8064  -10.7509 N   0  0  0  0  0  0  0  0  0  0  0  0
    5.8148  -10.1204  -22.3562 N   0  0  0  0  0  0  0  0  0  0  0  0
    7.2200    0.1408   -8.9575 O   0  0  0  0  0  0  0  0  0  0  0  0
    6.1006   -9.9132  -21.0071 O   0  0  0  0  0  0  0  0  0  0  0  0
    6.6644   -5.2394  -12.2215 O   0  0  0  0  0  0  0  0  0  0  0  0
    7.6172   -0.8337  -12.7719 H   0  0  0  0  0  0  0  0  0  0  0  0
    7.2824   -2.3677   -8.7581 H   0  0  0  0  0  0  0  0  0  0  0  0
    7.1315   -3.0798  -13.6677 H   0  0  0  0  0  0  0  0  0  0  0  0
    6.7979   -4.6120   -9.6593 H   0  0  0  0  0  0  0  0  0  0  0  0
    8.7582   -8.8237  -22.7628 H   0  0  0  0  0  0  0  0  0  0  0  0
    9.0506   -8.5530  -20.0848 H   0  0  0  0  0  0  0  0  0  0  0  0
    7.7088    1.7352   -7.7340 H   0  0  0  0  0  0  0  0  0  0  0  0
    6.4681    2.0510   -8.9714 H   0  0  0  0  0  0  0  0  0  0  0  0
    9.4922    1.8579   -9.2499 H   0  0  0  0  0  0  0  0  0  0  0  0
    6.9316  -10.8612  -24.9666 H   0  0  0  0  0  0  0  0  0  0  0  0
    7.4911   -9.1817  -25.1287 H   0  0  0  0  0  0  0  0  0  0  0  0
    5.7564   -9.5280  -25.0086 H   0  0  0  0  0  0  0  0  0  0  0  0
    9.3124    4.3058   -8.8586 H   0  0  0  0  0  0  0  0  0  0  0  0
    7.5437    4.3043   -8.7266 H   0  0  0  0  0  0  0  0  0  0  0  0
    8.3529    5.3252   -9.9478 H   0  0  0  0  0  0  0  0  0  0  0  0
    7.8722  -10.1004  -18.1744 H   0  0  0  0  0  0  0  0  0  0  0  0
    6.4425   -9.1449  -18.5564 H   0  0  0  0  0  0  0  0  0  0  0  0
    9.0908    3.3792  -11.1799 H   0  0  0  0  0  0  0  0  0  0  0  0
    7.3486    3.2515  -10.9255 H   0  0  0  0  0  0  0  0  0  0  0  0
    7.9643   -7.0448  -18.1799 H   0  0  0  0  0  0  0  0  0  0  0  0
    9.1093   -8.1611  -17.4344 H   0  0  0  0  0  0  0  0  0  0  0  0
    7.2920   -8.9237  -15.8526 H   0  0  0  0  0  0  0  0  0  0  0  0
    6.2013   -7.7393  -16.5784 H   0  0  0  0  0  0  0  0  0  0  0  0
    8.8370   -7.1338  -15.1372 H   0  0  0  0  0  0  0  0  0  0  0  0
    7.8628   -5.9126  -15.9433 H   0  0  0  0  0  0  0  0  0  0  0  0
    6.8629   -7.7108  -13.6927 H   0  0  0  0  0  0  0  0  0  0  0  0
    5.9965   -6.3286  -14.3620 H   0  0  0  0  0  0  0  0  0  0  0  0
    8.3566   -6.3661  -12.4601 H   0  0  0  0  0  0  0  0  0  0  0  0
    8.1910   -4.9982  -13.5629 H   0  0  0  0  0  0  0  0  0  0  0  0
    4.9372  -10.5192  -22.6561 H   0  0  0  0  0  0  0  0  0  0  0  0
  1  3  4  0  0  0  0
  1  5  4  0  0  0  0
  2  4  4  0  0  0  0
  2  5  4  0  0  0  0
  3  6  4  0  0  0  0
  4  6  4  0  0  0  0
  5  8  1  0  0  0  0
  6 27  1  0  0  0  0
  7  9  2  0  0  0  0
  7 10  1  0  0  0  0
  8 23  2  0  0  0  0
  8 25  1  0  0  0  0
  9 14  1  0  0  0  0
  9 24  1  0  0  0  0
 10 11  2  0  0  0  0
 10 26  1  0  0  0  0
 11 16  1  0  0  0  0
 12 13  1  0  0  0  0
 12 25  1  0  0  0  0
 13 17  1  0  0  0  0
 13 23  1  0  0  0  0
 15 17  1  0  0  0  0
 16 18  1  0  0  0  0
 18 19  1  0  0  0  0
 19 20  1  0  0  0  0
 20 21  1  0  0  0  0
 21 22  1  0  0  0  0
 22 27  1  0  0  0  0
 24 26  1  0  0  0  0
  1 28  1  0  0  0  0
  2 29  1  0  0  0  0
  3 30  1  0  0  0  0
  4 31  1  0  0  0  0
  7 32  1  0  0  0  0
 11 33  1  0  0  0  0
 12 34  1  0  0  0  0
 12 35  1  0  0  0  0
 13 36  1  0  0  0  0
 14 37  1  0  0  0  0
 14 38  1  0  0  0  0
 14 39  1  0  0  0  0
 15 40  1  0  0  0  0
 15 41  1  0  0  0  0
 15 42  1  0  0  0  0
 16 43  1  0  0  0  0
 16 44  1  0  0  0  0
 17 45  1  0  0  0  0
 17 46  1  0  0  0  0
 18 47  1  0  0  0  0
 18 48  1  0  0  0  0
 19 49  1  0  0  0  0
 19 50  1  0  0  0  0
 20 51  1  0  0  0  0
 20 52  1  0  0  0  0
 21 53  1  0  0  0  0
 21 54  1  0  0  0  0
 22 55  1  0  0  0  0
 22 56  1  0  0  0  0
 24 57  1  0  0  0  0
M  END
>  <PHARMACOPHORE>
ACCEPTOR_ATOM SYMMETRIC_HET5_N ATOM_23  {VECTOR [8.474191830985163,0.8064396999275942,-10.750918554772692] [9.678131884069659,0.7548693813530925,-13.388695810497865]}
ACCEPTOR_ATOM ETHER ATOM_27  {ARC [6.664442769867606,-5.239354001148846,-12.221471433999316] [4.184935302558801,-5.070999379810827,-13.716028037488794] [6.314511417656211,-7.02958524268532,-9.96700472309709]}
AROMATIC_RING ATOMS_1_2_3_4_5_6 {VECTOR [5.252363848562912,-2.298416142367398,-11.215150953423558] [9.161906826597006,-3.1442670556465857,-11.211998905030894]}

>  <COMMENT>
GA Superposition Molecule

$$$$
GA ranked 1 2RS5.*


 51 53  0  0  1  0  0  0  0  0999 V2000
    7.3194   -1.8637  -12.1763 C   0  0  0  0  0  0  0  0  0  0  0  0
    6.8002   -2.6205   -9.9414 C   0  0  0  0  0  0  0  0  0  0  0  0
    7.1494   -3.1626  -12.6556 C   0  0  0  0  0  0  0  0  0  0  0  0
    6.6301   -3.9193  -10.4207 C   0  0  0  0  0  0  0  0  0  0  0  0
    8.5614   -8.6236  -20.0266 C   0  0  0  0  0  0  0  0  0  0  0  0
    7.1450   -1.5927  -10.8192 C   0  0  0  0  0  0  0  0  0  0  0  0
    6.8047   -4.1904  -11.7778 C   0  0  0  0  0  0  0  0  0  0  0  0
    7.5930   -9.4150  -20.6681 C   0  0  0  0  0  0  0  0  0  0  0  0
    7.8861   -8.0771  -18.9676 C   0  0  0  0  0  0  0  0  0  0  0  0
    8.2000    1.7464  -10.5100 C   0  0  0  0  0  0  0  0  0  0  0  0
    7.3285   -0.1890  -10.3014 C   0  0  1  0  0  0  0  0  0  0  0  0
    8.4874    1.4040   -9.0562 C   0  0  1  0  0  0  0  0  0  0  0  0
    7.7578  -10.2406  -21.8752 C   0  0  0  0  0  0  0  0  0  0  0  0
    9.8943    1.7217   -8.5999 C   0  0  0  0  0  0  0  0  0  0  0  0
    8.2747   -7.1373  -17.8543 C   0  0  0  0  0  0  0  0  0  0  0  0
    7.4562   -7.3995  -16.5869 C   0  0  0  0  0  0  0  0  0  0  0  0
    7.8782   -6.4668  -15.4503 C   0  0  0  0  0  0  0  0  0  0  0  0
    7.1740   -6.8286  -14.1444 C   0  0  0  0  0  0  0  0  0  0  0  0
    7.7236   -6.0315  -12.9700 C   0  0  0  0  0  0  0  0  0  0  0  0
    6.4077   -9.3634  -20.0539 N   0  0  0  0  0  0  0  0  0  0  0  0
    8.2439   -0.0676   -9.0299 N   0  3  0  0  0  0  0  0  0  0  0  0
    6.5998   -8.5111  -18.9731 O   0  0  0  0  0  0  0  0  0  0  0  0
    7.7697    0.6479  -11.3401 O   0  0  0  0  0  0  0  0  0  0  0  0
    6.6368   -5.4662  -12.2500 O   0  0  0  0  0  0  0  0  0  0  0  0
    7.5881   -1.0690  -12.8672 H   0  0  0  0  0  0  0  0  0  0  0  0
    6.6630   -2.4188   -8.8821 H   0  0  0  0  0  0  0  0  0  0  0  0
    7.2865   -3.3683  -13.7136 H   0  0  0  0  0  0  0  0  0  0  0  0
    6.3627   -4.7157   -9.7316 H   0  0  0  0  0  0  0  0  0  0  0  0
    9.5972   -8.4721  -20.2927 H   0  0  0  0  0  0  0  0  0  0  0  0
    7.3271    2.3962  -10.6205 H   0  0  0  0  0  0  0  0  0  0  0  0
    9.0557    2.2259  -10.9988 H   0  0  0  0  0  0  0  0  0  0  0  0
    6.3404    0.1978   -9.9821 H   0  0  0  0  0  0  0  0  0  0  0  0
    7.7377    1.8496   -8.3926 H   0  0  0  0  0  0  0  0  0  0  0  0
    7.2522  -11.2158  -21.7669 H   0  0  0  0  0  0  0  0  0  0  0  0
    7.3451   -9.7514  -22.7760 H   0  0  0  0  0  0  0  0  0  0  0  0
    8.8206  -10.4416  -22.1022 H   0  0  0  0  0  0  0  0  0  0  0  0
   10.0686    2.8011   -8.6191 H   0  0  0  0  0  0  0  0  0  0  0  0
   10.6269    1.2417   -9.2547 H   0  0  0  0  0  0  0  0  0  0  0  0
   10.0559    1.3636   -7.5794 H   0  0  0  0  0  0  0  0  0  0  0  0
    9.3448   -7.2453  -17.6346 H   0  0  0  0  0  0  0  0  0  0  0  0
    8.1336   -6.0985  -18.1800 H   0  0  0  0  0  0  0  0  0  0  0  0
    6.3880   -7.2608  -16.7976 H   0  0  0  0  0  0  0  0  0  0  0  0
    7.5825   -8.4430  -16.2712 H   0  0  0  0  0  0  0  0  0  0  0  0
    8.9644   -6.5264  -15.3104 H   0  0  0  0  0  0  0  0  0  0  0  0
    7.6430   -5.4301  -15.7195 H   0  0  0  0  0  0  0  0  0  0  0  0
    6.0953   -6.6489  -14.2320 H   0  0  0  0  0  0  0  0  0  0  0  0
    7.2833   -7.9008  -13.9383 H   0  0  0  0  0  0  0  0  0  0  0  0
    8.3708   -5.2200  -13.3176 H   0  0  0  0  0  0  0  0  0  0  0  0
    8.2926   -6.6761  -12.2924 H   0  0  0  0  0  0  0  0  0  0  0  0
    7.7977   -0.3802   -8.1565 H   0  0  0  0  0  0  0  0  0  0  0  0
    9.1285   -0.5857   -9.1284 H   0  0  0  0  0  0  0  0  0  0  0  0
  1  3  4  0  0  0  0
  1  6  4  0  0  0  0
  2  4  4  0  0  0  0
  2  6  4  0  0  0  0
  3  7  4  0  0  0  0
  4  7  4  0  0  0  0
  5  8  4  0  0  0  0
  5  9  4  0  0  0  0
  6 11  1  0  0  0  0
  7 24  1  0  0  0  0
  8 13  1  0  0  0  0
  8 20  4  0  0  0  0
  9 15  1  0  0  0  0
  9 22  4  0  0  0  0
 10 12  1  0  0  0  0
 10 23  1  0  0  0  0
 11 21  1  0  0  0  0
 11 23  1  0  0  0  0
 12 14  1  0  0  0  0
 12 21  1  0  0  0  0
 15 16  1  0  0  0  0
 16 17  1  0  0  0  0
 17 18  1  0  0  0  0
 18 19  1  0  0  0  0
 19 24  1  0  0  0  0
 20 22  4  0  0  0  0
  1 25  1  0  0  0  0
  2 26  1  0  0  0  0
  3 27  1  0  0  0  0
  4 28  1  0  0  0  0
  5 29  1  0  0  0  0
 10 30  1  0  0  0  0
 10 31  1  0  0  0  0
 11 32  1  0  0  0  0
 12 33  1  0  0  0  0
 13 34  1  0  0  0  0
 13 35  1  0  0  0  0
 13 36  1  0  0  0  0
 14 37  1  0  0  0  0
 14 38  1  0  0  0  0
 14 39  1  0  0  0  0
 15 40  1  0  0  0  0
 15 41  1  0  0  0  0
 16 42  1  0  0  0  0
 16 43  1  0  0  0  0
 17 44  1  0  0  0  0
 17 45  1  0  0  0  0
 18 46  1  0  0  0  0
 18 47  1  0  0  0  0
 19 48  1  0  0  0  0
 19 49  1  0  0  0  0
 21 50  1  0  0  0  0
 21 51  1  0  0  0  0
M  END
>  <PHARMACOPHORE>
DONOR_HYDROGEN SP3_N+H2 ATOM_51 [charged = yes] {VECTOR [8.243935551338707,-0.06757419681528498,-9.029885480247387] [10.734867999427287,-1.526458000303984,-9.307218469590119]}

>  <COMMENT>
GA Superposition Molecule

$$$$
GA ranked 1 Pharmacophore


  8  0  0  0  0  0  0  0  0  0999 V2000
    6.7638   -1.0879   -6.8579 Q   0  0  0  0  0  0  0  0  0  0  0  0
    6.0935   -8.8841  -20.2412 Q   0  0  0  0  0  0  0  0  0  0  0  0
    7.4343   -0.2755   -8.4603 Q   0  0  0  0  0  0  0  0  0  0  0  0
    6.4340   -8.3892  -18.9880 Q   0  0  0  0  0  0  0  0  0  0  0  0
    8.4742    0.8064  -10.7509 Q   0  0  0  0  0  0  0  0  0  0  0  0
    6.6644   -5.2394  -12.2215 Q   0  0  0  0  0  0  0  0  0  0  0  0
    7.2071   -2.7213  -11.2136 Q   0  0  0  0  0  0  0  0  0  0  0  0
   10.7349   -1.5265   -9.3072 Q   0  0  0  0  0  0  0  0  0  0  0  0
M  END
>  <COMMENT>
Pharmacophore Points

$$$$
GA ranked 1 Pharmacophore all features


 17 10  0  0  0  0  0  0  0  0999 V2000
    8.2734   -0.0090   -9.0866 Q   0  0  0  0  0  0  0  0  0  0  0  0
    6.7638   -1.0879   -6.8579 Q   0  0  0  0  0  0  0  0  0  0  0  0
    6.0935   -8.8841  -20.2412 Q   0  0  0  0  0  0  0  0  0  0  0  0
    3.4323   -9.3924  -21.2754 Q   0  0  0  0  0  0  0  0  0  0  0  0
    7.4343   -0.2755   -8.4603 Q   0  0  0  0  0  0  0  0  0  0  0  0
    6.8277   -2.1293   -6.3142 Q   0  0  0  0  0  0  0  0  0  0  0  0
    6.4340   -8.3892  -18.9880 Q   0  0  0  0  0  0  0  0  0  0  0  0
    4.5542   -7.6675  -16.9011 Q   0  0  0  0  0  0  0  0  0  0  0  0
    8.4742    0.8064  -10.7509 Q   0  0  0  0  0  0  0  0  0  0  0  0
    9.6781    0.7549  -13.3887 Q   0  0  0  0  0  0  0  0  0  0  0  0
    6.6644   -5.2394  -12.2215 Q   0  0  0  0  0  0  0  0  0  0  0  0
    4.1849   -5.0710  -13.7160 Q   0  0  0  0  0  0  0  0  0  0  0  0
    6.3145   -7.0296   -9.9670 Q   0  0  0  0  0  0  0  0  0  0  0  0
    5.2524   -2.2984  -11.2152 Q   0  0  0  0  0  0  0  0  0  0  0  0
    9.1619   -3.1443  -11.2120 Q   0  0  0  0  0  0  0  0  0  0  0  0
    8.2439   -0.0676   -9.0299 Q   0  0  0  0  0  0  0  0  0  0  0  0
   10.7349   -1.5265   -9.3072 Q   0  0  0  0  0  0  0  0  0  0  0  0
  1  2  1  0  0  0  0
  3  4  1  0  0  0  0
  5  6  1  0  0  0  0
  7  8  1  0  0  0  0
  9 10  1  0  0  0  0
 11 12  1  0  0  0  0
 11 13  1  0  0  0  0
 12 13  1  0  0  0  0
 14 15  1  0  0  0  0
 16 17  1  0  0  0  0
M  END
>  <COMMENT>
Pharmacophore Geometry

$$$$
