2R04.*
  -OEChem-01061012483D

 51 53  0     1  0  0  0  0  0999 V2000
    4.2525   -6.1425    1.3363 C   0  0  0  0  0  0  0  0  0  0  0  0
    2.6416   -7.3317    2.6884 C   0  0  0  0  0  0  0  0  0  0  0  0
    3.4992   -6.4193    0.1955 C   0  0  0  0  0  0  0  0  0  0  0  0
    1.8883   -7.6084    1.5476 C   0  0  0  0  0  0  0  0  0  0  0  0
    3.8237   -6.5988    2.5828 C   0  0  0  0  0  0  0  0  0  0  0  0
    2.3171   -7.1521    0.3011 C   0  0  0  0  0  0  0  0  0  0  0  0
   -2.1731    0.1458   -6.2579 C   0  0  0  0  0  0  0  0  0  0  0  0
    5.7115   -7.6774    5.0373 C   0  0  0  0  0  0  0  0  0  0  0  0
   -3.3764    0.7222   -6.1848 C   0  0  0  0  0  0  0  0  0  0  0  0
   -2.3578   -1.2278   -5.8527 C   0  0  0  0  0  0  0  0  0  0  0  0
   -1.4165   -2.1750   -5.7760 C   0  0  0  0  0  0  0  0  0  0  0  0
    6.7582   -6.9479    4.2654 C   0  0  0  0  0  0  0  0  0  0  0  0
    4.6290   -6.3027    3.8024 C   0  0  1  0  0  0  0  0  0  0  0  0
   -3.7578    2.1213   -6.4858 C   0  0  0  0  0  0  0  0  0  0  0  0
   -1.6810   -3.5874   -5.3452 C   0  0  0  0  0  0  0  0  0  0  0  0
   -0.8830   -3.9442   -4.0894 C   0  0  0  0  0  0  0  0  0  0  0  0
   -1.1280   -5.3958   -3.6692 C   0  0  0  0  0  0  0  0  0  0  0  0
   -0.3546   -5.7415   -2.3949 C   0  0  0  0  0  0  0  0  0  0  0  0
   -0.5729   -7.1838   -1.9250 C   0  0  0  0  0  0  0  0  0  0  0  0
    0.1732   -7.5530   -0.6472 C   0  0  0  0  0  0  0  0  0  0  0  0
    4.4763   -7.3614    4.8192 N   0  0  0  0  0  0  0  0  0  0  0  0
   -4.2805   -0.2110   -5.7633 N   0  0  0  0  0  0  0  0  0  0  0  0
   -3.7019   -1.4590   -5.5346 O   0  0  0  0  0  0  0  0  0  0  0  0
    5.9924   -6.1225    3.3938 O   0  0  0  0  0  0  0  0  0  0  0  0
    1.5767   -7.4227   -0.8208 O   0  0  0  0  0  0  0  0  0  0  0  0
    5.1722   -5.5709    1.2449 H   0  0  0  0  0  0  0  0  0  0  0  0
    2.3002   -7.6920    3.6554 H   0  0  0  0  0  0  0  0  0  0  0  0
    3.8375   -6.0615   -0.7731 H   0  0  0  0  0  0  0  0  0  0  0  0
    0.9690   -8.1807    1.6364 H   0  0  0  0  0  0  0  0  0  0  0  0
   -1.2439    0.6022   -6.5557 H   0  0  0  0  0  0  0  0  0  0  0  0
    6.0039   -8.4478    5.7652 H   0  0  0  0  0  0  0  0  0  0  0  0
   -0.3963   -1.9190   -6.0496 H   0  0  0  0  0  0  0  0  0  0  0  0
    7.3754   -6.3391    4.9297 H   0  0  0  0  0  0  0  0  0  0  0  0
    7.3750   -7.6419    3.6909 H   0  0  0  0  0  0  0  0  0  0  0  0
    4.2769   -5.3524    4.2190 H   0  0  0  0  0  0  0  0  0  0  0  0
   -4.0399    2.2221   -7.5381 H   0  0  0  0  0  0  0  0  0  0  0  0
   -2.9222    2.7978   -6.2814 H   0  0  0  0  0  0  0  0  0  0  0  0
   -4.6056    2.4280   -5.8655 H   0  0  0  0  0  0  0  0  0  0  0  0
   -1.4011   -4.2585   -6.1661 H   0  0  0  0  0  0  0  0  0  0  0  0
   -2.7508   -3.7421   -5.1587 H   0  0  0  0  0  0  0  0  0  0  0  0
   -1.1645   -3.2729   -3.2680 H   0  0  0  0  0  0  0  0  0  0  0  0
    0.1881   -3.7928   -4.2746 H   0  0  0  0  0  0  0  0  0  0  0  0
   -0.8221   -6.0687   -4.4792 H   0  0  0  0  0  0  0  0  0  0  0  0
   -2.2016   -5.5455   -3.5085 H   0  0  0  0  0  0  0  0  0  0  0  0
    0.7184   -5.6026   -2.5780 H   0  0  0  0  0  0  0  0  0  0  0  0
   -0.6272   -5.0426   -1.5951 H   0  0  0  0  0  0  0  0  0  0  0  0
   -0.2348   -7.8474   -2.7307 H   0  0  0  0  0  0  0  0  0  0  0  0
   -1.6441   -7.3691   -1.7849 H   0  0  0  0  0  0  0  0  0  0  0  0
   -0.1300   -6.9185    0.1904 H   0  0  0  0  0  0  0  0  0  0  0  0
   -0.0425   -8.5899   -0.3695 H   0  0  0  0  0  0  0  0  0  0  0  0
   -5.2650   -0.0481   -5.6100 H   0  0  0  0  0  0  0  0  0  0  0  0
  1  3  2  0  0  0  0
  1  5  1  0  0  0  0
  2  4  1  0  0  0  0
  2  5  2  0  0  0  0
  3  6  1  0  0  0  0
  4  6  2  0  0  0  0
  5 13  1  0  0  0  0
  6 25  1  0  0  0  0
  7  9  2  0  0  0  0
  7 10  1  0  0  0  0
  8 12  1  0  0  0  0
  8 21  2  0  0  0  0
  9 14  1  0  0  0  0
  9 22  1  0  0  0  0
 10 11  2  0  0  0  0
 10 23  1  0  0  0  0
 11 15  1  0  0  0  0
 12 24  1  0  0  0  0
 13 21  1  0  0  0  0
 13 24  1  0  0  0  0
 15 16  1  0  0  0  0
 16 17  1  0  0  0  0
 17 18  1  0  0  0  0
 18 19  1  0  0  0  0
 19 20  1  0  0  0  0
 20 25  1  0  0  0  0
 22 23  1  0  0  0  0
  1 26  1  0  0  0  0
  2 27  1  0  0  0  0
  3 28  1  0  0  0  0
  4 29  1  0  0  0  0
  7 30  1  0  0  0  0
  8 31  1  0  0  0  0
 11 32  1  0  0  0  0
 12 33  1  0  0  0  0
 12 34  1  0  0  0  0
 13 35  1  0  0  0  0
 14 36  1  0  0  0  0
 14 37  1  0  0  0  0
 14 38  1  0  0  0  0
 15 39  1  0  0  0  0
 15 40  1  0  0  0  0
 16 41  1  0  0  0  0
 16 42  1  0  0  0  0
 17 43  1  0  0  0  0
 17 44  1  0  0  0  0
 18 45  1  0  0  0  0
 18 46  1  0  0  0  0
 19 47  1  0  0  0  0
 19 48  1  0  0  0  0
 20 49  1  0  0  0  0
 20 50  1  0  0  0  0
 22 51  1  0  0  0  0
M  END
$$$$
2R06.*
  -OEChem-01061012483D

 48 50  0     1  0  0  0  0  0999 V2000
    2.3440    3.5403   -4.2736 C   0  0  0  0  0  0  0  0  0  0  0  0
    3.7372    3.0891   -6.1951 C   0  0  0  0  0  0  0  0  0  0  0  0
    1.2352    3.6748   -5.1091 C   0  0  0  0  0  0  0  0  0  0  0  0
    2.6284    3.2235   -7.0306 C   0  0  0  0  0  0  0  0  0  0  0  0
   -2.6046    0.9741   -4.3924 C   0  0  0  0  0  0  0  0  0  0  0  0
    3.5950    3.2475   -4.8166 C   0  0  0  0  0  0  0  0  0  0  0  0
    1.3774    3.5164   -6.4876 C   0  0  0  0  0  0  0  0  0  0  0  0
   -1.8779    1.3810   -3.2602 C   0  0  0  0  0  0  0  0  0  0  0  0
   -1.6892    0.2739   -5.1326 C   0  0  0  0  0  0  0  0  0  0  0  0
    6.0038    1.5080   -2.7259 C   0  0  0  0  0  0  0  0  0  0  0  0
    6.5407    1.6387   -4.1362 C   0  0  0  0  0  0  0  0  0  0  0  0
    4.7932    3.1019   -3.9136 C   0  0  1  0  0  0  0  0  0  0  0  0
   -2.3587    2.1715   -2.1156 C   0  0  0  0  0  0  0  0  0  0  0  0
   -1.7489   -0.4491   -6.4544 C   0  0  0  0  0  0  0  0  0  0  0  0
   -1.0954    0.3690   -7.5719 C   0  0  0  0  0  0  0  0  0  0  0  0
   -1.8162    1.7023   -7.7783 C   0  0  0  0  0  0  0  0  0  0  0  0
   -1.1452    2.5332   -8.8699 C   0  0  0  0  0  0  0  0  0  0  0  0
    0.2904    2.8847   -8.5063 C   0  0  0  0  0  0  0  0  0  0  0  0
   -0.6089    0.9650   -3.2954 N   0  0  0  0  0  0  0  0  0  0  0  0
    4.6257    2.0505   -2.8599 N   0  3  0  0  0  0  0  0  0  0  0  0
   -0.4943    0.2614   -4.4884 O   0  0  0  0  0  0  0  0  0  0  0  0
    5.9889    2.8525   -4.6741 O   0  0  0  0  0  0  0  0  0  0  0  0
    0.2869    3.6477   -7.3077 O   0  0  0  0  0  0  0  0  0  0  0  0
    2.2242    3.6653   -3.2007 H   0  0  0  0  0  0  0  0  0  0  0  0
    4.7083    2.8617   -6.6273 H   0  0  0  0  0  0  0  0  0  0  0  0
    0.2629    3.9028   -4.6810 H   0  0  0  0  0  0  0  0  0  0  0  0
    2.7460    3.1001   -8.1037 H   0  0  0  0  0  0  0  0  0  0  0  0
   -3.6403    1.1607   -4.6357 H   0  0  0  0  0  0  0  0  0  0  0  0
    5.9611    0.4837   -2.3494 H   0  0  0  0  0  0  0  0  0  0  0  0
    6.5321    2.1621   -2.0253 H   0  0  0  0  0  0  0  0  0  0  0  0
    7.6327    1.6840   -4.1674 H   0  0  0  0  0  0  0  0  0  0  0  0
    6.2050    0.8077   -4.7665 H   0  0  0  0  0  0  0  0  0  0  0  0
    4.9397    4.0569   -3.3701 H   0  0  0  0  0  0  0  0  0  0  0  0
   -2.7600    1.5214   -1.3188 H   0  0  0  0  0  0  0  0  0  0  0  0
   -1.5589    2.7888   -1.6683 H   0  0  0  0  0  0  0  0  0  0  0  0
   -3.1592    2.8776   -2.4020 H   0  0  0  0  0  0  0  0  0  0  0  0
   -1.2505   -1.4233   -6.3669 H   0  0  0  0  0  0  0  0  0  0  0  0
   -2.7940   -0.6635   -6.7129 H   0  0  0  0  0  0  0  0  0  0  0  0
   -0.0413    0.5556   -7.3297 H   0  0  0  0  0  0  0  0  0  0  0  0
   -1.1073   -0.2033   -8.5082 H   0  0  0  0  0  0  0  0  0  0  0  0
   -2.8624    1.5161   -8.0495 H   0  0  0  0  0  0  0  0  0  0  0  0
   -1.8211    2.2666   -6.8380 H   0  0  0  0  0  0  0  0  0  0  0  0
   -1.1556    1.9887   -9.8224 H   0  0  0  0  0  0  0  0  0  0  0  0
   -1.7113    3.4564   -9.0466 H   0  0  0  0  0  0  0  0  0  0  0  0
    0.7589    3.4797   -9.2967 H   0  0  0  0  0  0  0  0  0  0  0  0
    0.8844    1.9799   -8.3414 H   0  0  0  0  0  0  0  0  0  0  0  0
    3.9830    1.3083   -3.1702 H   0  0  0  0  0  0  0  0  0  0  0  0
    4.2584    2.4293   -1.9762 H   0  0  0  0  0  0  0  0  0  0  0  0
  1  3  2  0  0  0  0
  1  6  1  0  0  0  0
  2  4  1  0  0  0  0
  2  6  2  0  0  0  0
  3  7  1  0  0  0  0
  4  7  2  0  0  0  0
  5  8  1  0  0  0  0
  5  9  2  0  0  0  0
  6 12  1  0  0  0  0
  7 23  1  0  0  0  0
  8 13  1  0  0  0  0
  8 19  2  0  0  0  0
  9 14  1  0  0  0  0
  9 21  1  0  0  0  0
 10 11  1  0  0  0  0
 10 20  1  0  0  0  0
 11 22  1  0  0  0  0
 12 20  1  0  0  0  0
 12 22  1  0  0  0  0
 14 15  1  0  0  0  0
 15 16  1  0  0  0  0
 16 17  1  0  0  0  0
 17 18  1  0  0  0  0
 18 23  1  0  0  0  0
 19 21  1  0  0  0  0
  1 24  1  0  0  0  0
  2 25  1  0  0  0  0
  3 26  1  0  0  0  0
  4 27  1  0  0  0  0
  5 28  1  0  0  0  0
 10 29  1  0  0  0  0
 10 30  1  0  0  0  0
 11 31  1  0  0  0  0
 11 32  1  0  0  0  0
 12 33  1  0  0  0  0
 13 34  1  0  0  0  0
 13 35  1  0  0  0  0
 13 36  1  0  0  0  0
 14 37  1  0  0  0  0
 14 38  1  0  0  0  0
 15 39  1  0  0  0  0
 15 40  1  0  0  0  0
 16 41  1  0  0  0  0
 16 42  1  0  0  0  0
 17 43  1  0  0  0  0
 17 44  1  0  0  0  0
 18 45  1  0  0  0  0
 18 46  1  0  0  0  0
 20 47  1  0  0  0  0
 20 48  1  0  0  0  0
M  CHG  1  20   1
M  END
$$$$
2R07.*
  -OEChem-01061012483D

 48 50  0     1  0  0  0  0  0999 V2000
    0.5454    7.7860   -4.9204 C   0  0  0  0  0  0  0  0  0  0  0  0
    0.0158    6.9243   -3.9600 C   0  0  0  0  0  0  0  0  0  0  0  0
    1.8202    8.9138   -3.2057 C   0  0  0  0  0  0  0  0  0  0  0  0
   -2.1774    3.4502    5.0041 C   0  0  0  0  0  0  0  0  0  0  0  0
    1.4477    8.7808   -4.5433 C   0  0  0  0  0  0  0  0  0  0  0  0
    1.2906    8.0520   -2.2452 C   0  0  0  0  0  0  0  0  0  0  0  0
    0.3884    7.0573   -2.6224 C   0  0  0  0  0  0  0  0  0  0  0  0
   -2.2767    2.2507    5.7302 C   0  0  0  0  0  0  0  0  0  0  0  0
   -2.3642    3.0604    3.7043 C   0  0  0  0  0  0  0  0  0  0  0  0
    3.3556    9.2365   -7.1717 C   0  0  0  0  0  0  0  0  0  0  0  0
    4.1885    9.9647   -6.1718 C   0  0  0  0  0  0  0  0  0  0  0  0
    2.0129    9.7032   -5.5698 C   0  0  2  0  0  0  0  0  0  0  0  0
    1.7014    8.2081   -0.8183 C   0  0  0  0  0  0  0  0  0  0  0  0
   -2.1576    2.0644    7.1852 C   0  0  0  0  0  0  0  0  0  0  0  0
   -2.3925    3.7952    2.3879 C   0  0  0  0  0  0  0  0  0  0  0  0
   -1.0916    3.5950    1.6052 C   0  0  0  0  0  0  0  0  0  0  0  0
   -1.1397    4.3126    0.2551 C   0  0  0  0  0  0  0  0  0  0  0  0
    0.1695    4.1411   -0.5121 C   0  0  0  0  0  0  0  0  0  0  0  0
    0.1148    4.8161   -1.8752 C   0  0  0  0  0  0  0  0  0  0  0  0
   -2.5074    1.1977    4.9411 N   0  0  0  0  0  0  0  0  0  0  0  0
    2.1071    9.0493   -6.8895 N   0  0  0  0  0  0  0  0  0  0  0  0
   -2.5621    1.7183    3.6537 O   0  0  0  0  0  0  0  0  0  0  0  0
    3.2839   10.1650   -5.0907 O   0  0  0  0  0  0  0  0  0  0  0  0
   -0.1411    6.2017   -1.6915 O   0  0  0  0  0  0  0  0  0  0  0  0
    0.2492    7.6758   -5.9601 H   0  0  0  0  0  0  0  0  0  0  0  0
   -0.6866    6.1516   -4.2603 H   0  0  0  0  0  0  0  0  0  0  0  0
    2.5243    9.6891   -2.9126 H   0  0  0  0  0  0  0  0  0  0  0  0
   -1.9976    4.4505    5.3697 H   0  0  0  0  0  0  0  0  0  0  0  0
    3.8072    8.8864   -8.1109 H   0  0  0  0  0  0  0  0  0  0  0  0
    5.0378    9.3570   -5.8529 H   0  0  0  0  0  0  0  0  0  0  0  0
    4.5262   10.9224   -6.5740 H   0  0  0  0  0  0  0  0  0  0  0  0
    1.3504   10.5729   -5.6482 H   0  0  0  0  0  0  0  0  0  0  0  0
    1.0252    8.8989   -0.3012 H   0  0  0  0  0  0  0  0  0  0  0  0
    1.6852    7.2450   -0.2931 H   0  0  0  0  0  0  0  0  0  0  0  0
    2.7245    8.5967   -0.7402 H   0  0  0  0  0  0  0  0  0  0  0  0
   -3.1379    2.1589    7.6838 H   0  0  0  0  0  0  0  0  0  0  0  0
   -1.7465    1.0727    7.4474 H   0  0  0  0  0  0  0  0  0  0  0  0
   -1.4780    2.8035    7.6471 H   0  0  0  0  0  0  0  0  0  0  0  0
   -3.2441    3.4485    1.7881 H   0  0  0  0  0  0  0  0  0  0  0  0
   -2.5594    4.8657    2.5643 H   0  0  0  0  0  0  0  0  0  0  0  0
   -0.2428    3.9712    2.1904 H   0  0  0  0  0  0  0  0  0  0  0  0
   -0.9143    2.5239    1.4451 H   0  0  0  0  0  0  0  0  0  0  0  0
   -1.9698    3.9162   -0.3422 H   0  0  0  0  0  0  0  0  0  0  0  0
   -1.3356    5.3800    0.4133 H   0  0  0  0  0  0  0  0  0  0  0  0
    1.0053    4.5559    0.0652 H   0  0  0  0  0  0  0  0  0  0  0  0
    0.3960    3.0756   -0.6435 H   0  0  0  0  0  0  0  0  0  0  0  0
   -0.6863    4.3923   -2.4890 H   0  0  0  0  0  0  0  0  0  0  0  0
    1.0666    4.7050   -2.4047 H   0  0  0  0  0  0  0  0  0  0  0  0
  1  2  2  0  0  0  0
  1  5  1  0  0  0  0
  2  7  1  0  0  0  0
  3  5  2  0  0  0  0
  3  6  1  0  0  0  0
  4  8  1  0  0  0  0
  4  9  2  0  0  0  0
  5 12  1  0  0  0  0
  6  7  2  0  0  0  0
  6 13  1  0  0  0  0
  7 24  1  0  0  0  0
  8 14  1  0  0  0  0
  8 20  2  0  0  0  0
  9 15  1  0  0  0  0
  9 22  1  0  0  0  0
 10 11  1  0  0  0  0
 10 21  2  0  0  0  0
 11 23  1  0  0  0  0
 12 21  1  0  0  0  0
 12 23  1  0  0  0  0
 15 16  1  0  0  0  0
 16 17  1  0  0  0  0
 17 18  1  0  0  0  0
 18 19  1  0  0  0  0
 19 24  1  0  0  0  0
 20 22  1  0  0  0  0
  1 25  1  0  0  0  0
  2 26  1  0  0  0  0
  3 27  1  0  0  0  0
  4 28  1  0  0  0  0
 10 29  1  0  0  0  0
 11 30  1  0  0  0  0
 11 31  1  0  0  0  0
 12 32  1  0  0  0  0
 13 33  1  0  0  0  0
 13 34  1  0  0  0  0
 13 35  1  0  0  0  0
 14 36  1  0  0  0  0
 14 37  1  0  0  0  0
 14 38  1  0  0  0  0
 15 39  1  0  0  0  0
 15 40  1  0  0  0  0
 16 41  1  0  0  0  0
 16 42  1  0  0  0  0
 17 43  1  0  0  0  0
 17 44  1  0  0  0  0
 18 45  1  0  0  0  0
 18 46  1  0  0  0  0
 19 47  1  0  0  0  0
 19 48  1  0  0  0  0
M  END
$$$$
2RM2.*
  -OEChem-01061012483D

 57 59  0     1  0  0  0  0  0999 V2000
    1.2012   -1.2880   -4.3789 C   0  0  0  0  0  0  0  0  0  0  0  0
    1.5513   -1.7354   -5.6528 C   0  0  0  0  0  0  0  0  0  0  0  0
    3.4513   -1.7162   -3.6101 C   0  0  0  0  0  0  0  0  0  0  0  0
   -2.8605   -2.3702   -8.5938 C   0  0  0  0  0  0  0  0  0  0  0  0
    2.1512   -1.2784   -3.3575 C   0  0  0  0  0  0  0  0  0  0  0  0
    2.8514   -2.1732   -5.9054 C   0  0  0  0  0  0  0  0  0  0  0  0
    3.8014   -2.1636   -4.8840 C   0  0  0  0  0  0  0  0  0  0  0  0
   -2.9696   -2.4827   -7.1970 C   0  0  0  0  0  0  0  0  0  0  0  0
   -1.8364   -1.4778   -8.7697 C   0  0  0  0  0  0  0  0  0  0  0  0
    2.8593   -0.4904   -0.0013 C   0  0  0  0  0  0  0  0  0  0  0  0
    1.7725   -0.7927   -1.9804 C   0  0  2  0  0  0  0  0  0  0  0  0
    3.0095    0.8068   -0.7790 C   0  0  1  0  0  0  0  0  0  0  0  0
   -3.9122   -3.3124   -6.4295 C   0  0  0  0  0  0  0  0  0  0  0  0
    2.8277    2.0613    0.0468 C   0  0  0  0  0  0  0  0  0  0  0  0
   -1.1668   -0.8822   -9.9834 C   0  0  0  0  0  0  0  0  0  0  0  0
    0.1788   -1.5375  -10.3142 C   0  0  0  0  0  0  0  0  0  0  0  0
    0.0635   -3.0345  -10.6182 C   0  0  0  0  0  0  0  0  0  0  0  0
    1.4262   -3.6344  -10.9715 C   0  0  0  0  0  0  0  0  0  0  0  0
    2.4304   -3.4416   -9.8340 C   0  0  0  0  0  0  0  0  0  0  0  0
    1.9663   -4.1416   -8.5586 C   0  0  0  0  0  0  0  0  0  0  0  0
    2.9807   -3.9905   -7.4339 C   0  0  0  0  0  0  0  0  0  0  0  0
   -2.0811   -1.7185   -6.5556 N   0  0  0  0  0  0  0  0  0  0  0  0
    1.9314    0.6911   -1.8075 N   0  3  0  0  0  0  0  0  0  0  0  0
   -1.3630   -1.0815   -7.5606 O   0  0  0  0  0  0  0  0  0  0  0  0
    2.5323   -1.4912   -0.9783 O   0  0  0  0  0  0  0  0  0  0  0  0
    3.1675   -2.6076   -7.1665 O   0  0  0  0  0  0  0  0  0  0  0  0
    5.4153   -2.7023   -5.1680 Cl  0  0  0  0  0  0  0  0  0  0  0  0
    0.1864   -0.9477   -4.1911 H   0  0  0  0  0  0  0  0  0  0  0  0
    0.8060   -1.7411   -6.4433 H   0  0  0  0  0  0  0  0  0  0  0  0
    4.1874   -1.7056   -2.8093 H   0  0  0  0  0  0  0  0  0  0  0  0
   -3.4391   -2.8644   -9.3605 H   0  0  0  0  0  0  0  0  0  0  0  0
    3.7788   -0.7750    0.5179 H   0  0  0  0  0  0  0  0  0  0  0  0
    2.0429   -0.4460    0.7290 H   0  0  0  0  0  0  0  0  0  0  0  0
    0.6967   -1.0060   -1.8142 H   0  0  0  0  0  0  0  0  0  0  0  0
    3.9549    0.8211   -1.3324 H   0  0  0  0  0  0  0  0  0  0  0  0
   -3.4946   -4.3146   -6.2299 H   0  0  0  0  0  0  0  0  0  0  0  0
   -4.1693   -2.8602   -5.4546 H   0  0  0  0  0  0  0  0  0  0  0  0
   -4.8723   -3.4527   -6.9586 H   0  0  0  0  0  0  0  0  0  0  0  0
    1.8795    2.0282    0.5910 H   0  0  0  0  0  0  0  0  0  0  0  0
    2.8260    2.9465   -0.5957 H   0  0  0  0  0  0  0  0  0  0  0  0
    3.6391    2.1634    0.7730 H   0  0  0  0  0  0  0  0  0  0  0  0
   -1.0295    0.1990   -9.8551 H   0  0  0  0  0  0  0  0  0  0  0  0
   -1.8361   -0.9989  -10.8460 H   0  0  0  0  0  0  0  0  0  0  0  0
    0.8435   -1.4023   -9.4517 H   0  0  0  0  0  0  0  0  0  0  0  0
    0.6535   -1.0257  -11.1605 H   0  0  0  0  0  0  0  0  0  0  0  0
   -0.3517   -3.5557   -9.7472 H   0  0  0  0  0  0  0  0  0  0  0  0
   -0.6267   -3.1960  -11.4540 H   0  0  0  0  0  0  0  0  0  0  0  0
    1.3124   -4.7045  -11.1836 H   0  0  0  0  0  0  0  0  0  0  0  0
    1.8102   -3.1625  -11.8841 H   0  0  0  0  0  0  0  0  0  0  0  0
    2.5622   -2.3705   -9.6379 H   0  0  0  0  0  0  0  0  0  0  0  0
    3.4077   -3.8377  -10.1355 H   0  0  0  0  0  0  0  0  0  0  0  0
    1.0000   -3.7366   -8.2328 H   0  0  0  0  0  0  0  0  0  0  0  0
    1.7945   -5.2080   -8.7518 H   0  0  0  0  0  0  0  0  0  0  0  0
    3.9454   -4.4237   -7.7170 H   0  0  0  0  0  0  0  0  0  0  0  0
    2.6259   -4.4772   -6.5198 H   0  0  0  0  0  0  0  0  0  0  0  0
    2.1760    1.1801   -2.6798 H   0  0  0  0  0  0  0  0  0  0  0  0
    1.0490    1.0991   -1.4687 H   0  0  0  0  0  0  0  0  0  0  0  0
  1  2  2  0  0  0  0
  1  5  1  0  0  0  0
  2  6  1  0  0  0  0
  3  5  2  0  0  0  0
  3  7  1  0  0  0  0
  4  8  1  0  0  0  0
  4  9  2  0  0  0  0
  5 11  1  0  0  0  0
  6  7  2  0  0  0  0
  6 26  1  0  0  0  0
  7 27  1  0  0  0  0
  8 13  1  0  0  0  0
  8 22  2  0  0  0  0
  9 15  1  0  0  0  0
  9 24  1  0  0  0  0
 10 12  1  0  0  0  0
 10 25  1  0  0  0  0
 11 23  1  0  0  0  0
 11 25  1  0  0  0  0
 12 14  1  0  0  0  0
 12 23  1  0  0  0  0
 15 16  1  0  0  0  0
 16 17  1  0  0  0  0
 17 18  1  0  0  0  0
 18 19  1  0  0  0  0
 19 20  1  0  0  0  0
 20 21  1  0  0  0  0
 21 26  1  0  0  0  0
 22 24  1  0  0  0  0
  1 28  1  0  0  0  0
  2 29  1  0  0  0  0
  3 30  1  0  0  0  0
  4 31  1  0  0  0  0
 10 32  1  0  0  0  0
 10 33  1  0  0  0  0
 11 34  1  0  0  0  0
 12 35  1  0  0  0  0
 13 36  1  0  0  0  0
 13 37  1  0  0  0  0
 13 38  1  0  0  0  0
 14 39  1  0  0  0  0
 14 40  1  0  0  0  0
 14 41  1  0  0  0  0
 15 42  1  0  0  0  0
 15 43  1  0  0  0  0
 16 44  1  0  0  0  0
 16 45  1  0  0  0  0
 17 46  1  0  0  0  0
 17 47  1  0  0  0  0
 18 48  1  0  0  0  0
 18 49  1  0  0  0  0
 19 50  1  0  0  0  0
 19 51  1  0  0  0  0
 20 52  1  0  0  0  0
 20 53  1  0  0  0  0
 21 54  1  0  0  0  0
 21 55  1  0  0  0  0
 23 56  1  0  0  0  0
 23 57  1  0  0  0  0
M  CHG  1  23   1
M  END
$$$$
2RR1.*
  -OEChem-01061012483D

 57 59  0     1  0  0  0  0  0999 V2000
    0.1174    0.9807   -6.0402 C   0  0  0  0  0  0  0  0  0  0  0  0
    1.2589   -0.1622   -7.8367 C   0  0  0  0  0  0  0  0  0  0  0  0
   -1.0097    0.1865   -6.2510 C   0  0  0  0  0  0  0  0  0  0  0  0
    0.1318   -0.9565   -8.0476 C   0  0  0  0  0  0  0  0  0  0  0  0
    0.3957   -2.3019   -2.0864 C   0  0  0  0  0  0  0  0  0  0  0  0
    1.2517    0.8064   -6.8330 C   0  0  0  0  0  0  0  0  0  0  0  0
   -1.0025   -0.7821   -7.2547 C   0  0  0  0  0  0  0  0  0  0  0  0
    0.7194   -0.9439   -2.2495 C   0  0  0  0  0  0  0  0  0  0  0  0
    0.8790   -2.8910   -3.2245 C   0  0  0  0  0  0  0  0  0  0  0  0
    4.7227    1.3809   -6.8027 C   0  0  0  0  0  0  0  0  0  0  0  0
    2.4708    1.6652   -6.6047 C   0  0  1  0  0  0  0  0  0  0  0  0
    4.3539    0.9454   -5.3940 C   0  0  2  0  0  0  0  0  0  0  0  0
    0.4396    0.1676   -1.3263 C   0  0  0  0  0  0  0  0  0  0  0  0
    5.3146    1.4068   -4.3201 C   0  0  0  0  0  0  0  0  0  0  0  0
    0.8968   -4.3087   -3.7404 C   0  0  0  0  0  0  0  0  0  0  0  0
   -0.3401   -5.1165   -3.3314 C   0  0  0  0  0  0  0  0  0  0  0  0
   -1.6511   -4.5200   -3.8529 C   0  0  0  0  0  0  0  0  0  0  0  0
   -1.6469   -4.4241   -5.3802 C   0  0  0  0  0  0  0  0  0  0  0  0
   -2.9678   -3.8596   -5.9055 C   0  0  0  0  0  0  0  0  0  0  0  0
   -2.9767   -3.7950   -7.4312 C   0  0  0  0  0  0  0  0  0  0  0  0
   -1.8869   -2.8738   -7.9609 C   0  0  0  0  0  0  0  0  0  0  0  0
    1.3550   -0.7087   -3.4008 N   0  0  0  0  0  0  0  0  0  0  0  0
    3.0108    1.5730   -5.2059 N   0  3  0  0  0  0  0  0  0  0  0  0
    1.4539   -1.9504   -4.0170 O   0  0  0  0  0  0  0  0  0  0  0  0
    3.4995    1.3343   -7.5545 O   0  0  0  0  0  0  0  0  0  0  0  0
   -2.1103   -1.5628   -7.4605 O   0  0  0  0  0  0  0  0  0  0  0  0
    0.1031    1.7329   -5.2560 H   0  0  0  0  0  0  0  0  0  0  0  0
    2.1379   -0.3047   -8.4600 H   0  0  0  0  0  0  0  0  0  0  0  0
   -1.8907    0.3263   -5.6306 H   0  0  0  0  0  0  0  0  0  0  0  0
    0.1434   -1.7085   -8.8318 H   0  0  0  0  0  0  0  0  0  0  0  0
   -0.1130   -2.7830   -1.2638 H   0  0  0  0  0  0  0  0  0  0  0  0
    5.1046    2.4079   -6.8345 H   0  0  0  0  0  0  0  0  0  0  0  0
    5.4601    0.7182   -7.2647 H   0  0  0  0  0  0  0  0  0  0  0  0
    2.1874    2.7273   -6.7532 H   0  0  0  0  0  0  0  0  0  0  0  0
    4.1906   -0.1371   -5.3518 H   0  0  0  0  0  0  0  0  0  0  0  0
    1.2660    0.3116   -0.6089 H   0  0  0  0  0  0  0  0  0  0  0  0
    0.2912    1.1251   -1.8575 H   0  0  0  0  0  0  0  0  0  0  0  0
   -0.4829    0.0024   -0.7406 H   0  0  0  0  0  0  0  0  0  0  0  0
    5.4645    2.4886   -4.3787 H   0  0  0  0  0  0  0  0  0  0  0  0
    6.2854    0.9170   -4.4379 H   0  0  0  0  0  0  0  0  0  0  0  0
    4.9244    1.1656   -3.3272 H   0  0  0  0  0  0  0  0  0  0  0  0
    1.8041   -4.8280   -3.4067 H   0  0  0  0  0  0  0  0  0  0  0  0
    0.9527   -4.2824   -4.8367 H   0  0  0  0  0  0  0  0  0  0  0  0
   -0.3776   -5.1481   -2.2352 H   0  0  0  0  0  0  0  0  0  0  0  0
   -0.2466   -6.1547   -3.6732 H   0  0  0  0  0  0  0  0  0  0  0  0
   -2.4935   -5.1421   -3.5271 H   0  0  0  0  0  0  0  0  0  0  0  0
   -1.8026   -3.5197   -3.4315 H   0  0  0  0  0  0  0  0  0  0  0  0
   -0.8183   -3.7834   -5.7056 H   0  0  0  0  0  0  0  0  0  0  0  0
   -1.4756   -5.4184   -5.8105 H   0  0  0  0  0  0  0  0  0  0  0  0
   -3.1275   -2.8554   -5.4944 H   0  0  0  0  0  0  0  0  0  0  0  0
   -3.7988   -4.4865   -5.5597 H   0  0  0  0  0  0  0  0  0  0  0  0
   -2.8419   -4.7981   -7.8550 H   0  0  0  0  0  0  0  0  0  0  0  0
   -3.9531   -3.4466   -7.7908 H   0  0  0  0  0  0  0  0  0  0  0  0
   -1.9044   -2.8365   -9.0548 H   0  0  0  0  0  0  0  0  0  0  0  0
   -0.8982   -3.2086   -7.6313 H   0  0  0  0  0  0  0  0  0  0  0  0
    3.0945    2.5160   -4.8014 H   0  0  0  0  0  0  0  0  0  0  0  0
    2.4131    1.0238   -4.5727 H   0  0  0  0  0  0  0  0  0  0  0  0
  1  3  2  0  0  0  0
  1  6  1  0  0  0  0
  2  4  1  0  0  0  0
  2  6  2  0  0  0  0
  3  7  1  0  0  0  0
  4  7  2  0  0  0  0
  5  8  1  0  0  0  0
  5  9  2  0  0  0  0
  6 11  1  0  0  0  0
  7 26  1  0  0  0  0
  8 13  1  0  0  0  0
  8 22  2  0  0  0  0
  9 15  1  0  0  0  0
  9 24  1  0  0  0  0
 10 12  1  0  0  0  0
 10 25  1  0  0  0  0
 11 23  1  0  0  0  0
 11 25  1  0  0  0  0
 12 14  1  0  0  0  0
 12 23  1  0  0  0  0
 15 16  1  0  0  0  0
 16 17  1  0  0  0  0
 17 18  1  0  0  0  0
 18 19  1  0  0  0  0
 19 20  1  0  0  0  0
 20 21  1  0  0  0  0
 21 26  1  0  0  0  0
 22 24  1  0  0  0  0
  1 27  1  0  0  0  0
  2 28  1  0  0  0  0
  3 29  1  0  0  0  0
  4 30  1  0  0  0  0
  5 31  1  0  0  0  0
 10 32  1  0  0  0  0
 10 33  1  0  0  0  0
 11 34  1  0  0  0  0
 12 35  1  0  0  0  0
 13 36  1  0  0  0  0
 13 37  1  0  0  0  0
 13 38  1  0  0  0  0
 14 39  1  0  0  0  0
 14 40  1  0  0  0  0
 14 41  1  0  0  0  0
 15 42  1  0  0  0  0
 15 43  1  0  0  0  0
 16 44  1  0  0  0  0
 16 45  1  0  0  0  0
 17 46  1  0  0  0  0
 17 47  1  0  0  0  0
 18 48  1  0  0  0  0
 18 49  1  0  0  0  0
 19 50  1  0  0  0  0
 19 51  1  0  0  0  0
 20 52  1  0  0  0  0
 20 53  1  0  0  0  0
 21 54  1  0  0  0  0
 21 55  1  0  0  0  0
 23 56  1  0  0  0  0
 23 57  1  0  0  0  0
M  CHG  1  23   1
M  END
$$$$
2RS1.*
  -OEChem-01061012483D

 54 56  0     1  0  0  0  0  0999 V2000
    4.5332   -5.0545    0.1232 C   0  0  0  0  0  0  0  0  0  0  0  0
    4.9510   -2.6754    0.1755 C   0  0  0  0  0  0  0  0  0  0  0  0
    5.3883   -5.1806   -0.9715 C   0  0  0  0  0  0  0  0  0  0  0  0
    5.8062   -2.8016   -0.9192 C   0  0  0  0  0  0  0  0  0  0  0  0
    4.3144   -3.8019    0.6966 C   0  0  0  0  0  0  0  0  0  0  0  0
    6.0249   -4.0542   -1.4927 C   0  0  0  0  0  0  0  0  0  0  0  0
    0.8137   -3.9008   -3.3578 C   0  0  0  0  0  0  0  0  0  0  0  0
    3.4136   -3.6686    1.8506 C   0  0  0  0  0  0  0  0  0  0  0  0
    0.1688   -5.0672   -3.4525 C   0  0  0  0  0  0  0  0  0  0  0  0
    1.4516   -3.6867   -4.6353 C   0  0  0  0  0  0  0  0  0  0  0  0
    2.2064   -2.6408   -4.9898 C   0  0  0  0  0  0  0  0  0  0  0  0
    2.5966   -2.5616    3.5583 C   0  0  0  0  0  0  0  0  0  0  0  0
    1.9616   -3.9328    3.4456 C   0  0  1  0  0  0  0  0  0  0  0  0
   -0.6458   -5.7659   -2.4318 C   0  0  0  0  0  0  0  0  0  0  0  0
    1.9744   -4.7078    4.7495 C   0  0  0  0  0  0  0  0  0  0  0  0
    2.8404   -2.4834   -6.3402 C   0  0  0  0  0  0  0  0  0  0  0  0
    4.3652   -2.4143   -6.2337 C   0  0  0  0  0  0  0  0  0  0  0  0
    4.9388   -3.6991   -5.6301 C   0  0  0  0  0  0  0  0  0  0  0  0
    6.4608   -3.6157   -5.4944 C   0  0  0  0  0  0  0  0  0  0  0  0
    7.0854   -4.8757   -4.8852 C   0  0  0  0  0  0  0  0  0  0  0  0
    6.5783   -5.2219   -3.4892 C   0  0  0  0  0  0  0  0  0  0  0  0
    2.7644   -4.6308    2.4279 N   0  0  0  0  0  0  0  0  0  0  0  0
    0.3715   -5.5755   -4.7042 N   0  0  0  0  0  0  0  0  0  0  0  0
    3.2888   -2.4065    2.3277 O   0  0  0  0  0  0  0  0  0  0  0  0
    1.1729   -4.7547   -5.4972 O   0  0  0  0  0  0  0  0  0  0  0  0
    6.8645   -4.1783   -2.5695 O   0  0  0  0  0  0  0  0  0  0  0  0
    4.0417   -5.9385    0.5213 H   0  0  0  0  0  0  0  0  0  0  0  0
    4.7869   -1.6946    0.6145 H   0  0  0  0  0  0  0  0  0  0  0  0
    5.5548   -6.1589   -1.4140 H   0  0  0  0  0  0  0  0  0  0  0  0
    6.2985   -1.9204   -1.3215 H   0  0  0  0  0  0  0  0  0  0  0  0
    0.8585   -3.2432   -2.5057 H   0  0  0  0  0  0  0  0  0  0  0  0
    2.3685   -1.8463   -4.2662 H   0  0  0  0  0  0  0  0  0  0  0  0
    1.8465   -1.7725    3.6678 H   0  0  0  0  0  0  0  0  0  0  0  0
    3.3175   -2.4798    4.3791 H   0  0  0  0  0  0  0  0  0  0  0  0
    0.9314   -3.8478    3.0772 H   0  0  0  0  0  0  0  0  0  0  0  0
   -1.6928   -5.4562   -2.5015 H   0  0  0  0  0  0  0  0  0  0  0  0
   -0.2791   -5.5355   -1.4267 H   0  0  0  0  0  0  0  0  0  0  0  0
   -0.5911   -6.8494   -2.5757 H   0  0  0  0  0  0  0  0  0  0  0  0
    2.9955   -4.7989    5.1262 H   0  0  0  0  0  0  0  0  0  0  0  0
    1.5677   -5.7101    4.5986 H   0  0  0  0  0  0  0  0  0  0  0  0
    1.3698   -4.1953    5.5010 H   0  0  0  0  0  0  0  0  0  0  0  0
    2.4581   -1.5630   -6.7977 H   0  0  0  0  0  0  0  0  0  0  0  0
    2.5541   -3.3102   -7.0019 H   0  0  0  0  0  0  0  0  0  0  0  0
    4.6551   -1.5571   -5.6128 H   0  0  0  0  0  0  0  0  0  0  0  0
    4.7999   -2.2516   -7.2282 H   0  0  0  0  0  0  0  0  0  0  0  0
    4.6722   -4.5531   -6.2642 H   0  0  0  0  0  0  0  0  0  0  0  0
    4.4833   -3.8673   -4.6477 H   0  0  0  0  0  0  0  0  0  0  0  0
    6.9014   -3.4642   -6.4878 H   0  0  0  0  0  0  0  0  0  0  0  0
    6.7316   -2.7375   -4.8961 H   0  0  0  0  0  0  0  0  0  0  0  0
    8.1692   -4.7134   -4.8326 H   0  0  0  0  0  0  0  0  0  0  0  0
    6.9208   -5.7297   -5.5521 H   0  0  0  0  0  0  0  0  0  0  0  0
    5.4985   -5.3951   -3.4876 H   0  0  0  0  0  0  0  0  0  0  0  0
    7.0589   -6.1373   -3.1286 H   0  0  0  0  0  0  0  0  0  0  0  0
    0.0083   -6.4523   -5.0483 H   0  0  0  0  0  0  0  0  0  0  0  0
  1  3  2  0  0  0  0
  1  5  1  0  0  0  0
  2  4  1  0  0  0  0
  2  5  2  0  0  0  0
  3  6  1  0  0  0  0
  4  6  2  0  0  0  0
  5  8  1  0  0  0  0
  6 26  1  0  0  0  0
  7  9  2  0  0  0  0
  7 10  1  0  0  0  0
  8 22  2  0  0  0  0
  8 24  1  0  0  0  0
  9 14  1  0  0  0  0
  9 23  1  0  0  0  0
 10 11  2  0  0  0  0
 10 25  1  0  0  0  0
 11 16  1  0  0  0  0
 12 13  1  0  0  0  0
 12 24  1  0  0  0  0
 13 15  1  0  0  0  0
 13 22  1  0  0  0  0
 16 17  1  0  0  0  0
 17 18  1  0  0  0  0
 18 19  1  0  0  0  0
 19 20  1  0  0  0  0
 20 21  1  0  0  0  0
 21 26  1  0  0  0  0
 23 25  1  0  0  0  0
  1 27  1  0  0  0  0
  2 28  1  0  0  0  0
  3 29  1  0  0  0  0
  4 30  1  0  0  0  0
  7 31  1  0  0  0  0
 11 32  1  0  0  0  0
 12 33  1  0  0  0  0
 12 34  1  0  0  0  0
 13 35  1  0  0  0  0
 14 36  1  0  0  0  0
 14 37  1  0  0  0  0
 14 38  1  0  0  0  0
 15 39  1  0  0  0  0
 15 40  1  0  0  0  0
 15 41  1  0  0  0  0
 16 42  1  0  0  0  0
 16 43  1  0  0  0  0
 17 44  1  0  0  0  0
 17 45  1  0  0  0  0
 18 46  1  0  0  0  0
 18 47  1  0  0  0  0
 19 48  1  0  0  0  0
 19 49  1  0  0  0  0
 20 50  1  0  0  0  0
 20 51  1  0  0  0  0
 21 52  1  0  0  0  0
 21 53  1  0  0  0  0
 23 54  1  0  0  0  0
M  END
$$$$
2RS3.*
  -OEChem-01061012483D

 57 59  0     1  0  0  0  0  0999 V2000
    4.4677   -5.1033    0.0873 C   0  0  0  0  0  0  0  0  0  0  0  0
    4.7339   -2.7020    0.0900 C   0  0  0  0  0  0  0  0  0  0  0  0
    5.3470   -5.1996   -0.9913 C   0  0  0  0  0  0  0  0  0  0  0  0
    5.6132   -2.7983   -0.9885 C   0  0  0  0  0  0  0  0  0  0  0  0
    4.1611   -3.8545    0.6279 C   0  0  0  0  0  0  0  0  0  0  0  0
    5.9197   -4.0471   -1.5291 C   0  0  0  0  0  0  0  0  0  0  0  0
    0.7405   -4.2660   -3.4749 C   0  0  0  0  0  0  0  0  0  0  0  0
    3.2349   -3.7527    1.7648 C   0  0  0  0  0  0  0  0  0  0  0  0
    0.1720   -5.4729   -3.5520 C   0  0  0  0  0  0  0  0  0  0  0  0
    1.3846   -4.0407   -4.7474 C   0  0  0  0  0  0  0  0  0  0  0  0
    2.0777   -2.9574   -5.1151 C   0  0  0  0  0  0  0  0  0  0  0  0
    2.3219   -2.6616    3.4337 C   0  0  0  0  0  0  0  0  0  0  0  0
    1.7764   -4.0725    3.3437 C   0  0  1  0  0  0  0  0  0  0  0  0
   -0.6135   -6.1986   -2.5275 C   0  0  0  0  0  0  0  0  0  0  0  0
    1.3568   -6.2337    4.5268 C   0  0  0  0  0  0  0  0  0  0  0  0
    2.7226   -2.7905   -6.4592 C   0  0  0  0  0  0  0  0  0  0  0  0
    1.8167   -4.8156    4.6654 C   0  0  0  0  0  0  0  0  0  0  0  0
    4.2380   -2.6225   -6.3315 C   0  0  0  0  0  0  0  0  0  0  0  0
    4.8814   -3.8545   -5.6895 C   0  0  0  0  0  0  0  0  0  0  0  0
    6.3927   -3.6718   -5.5330 C   0  0  0  0  0  0  0  0  0  0  0  0
    7.0854   -4.8757   -4.8852 C   0  0  0  0  0  0  0  0  0  0  0  0
    6.5783   -5.2219   -3.4892 C   0  0  0  0  0  0  0  0  0  0  0  0
    2.6383   -4.7409    2.3547 N   0  0  0  0  0  0  0  0  0  0  0  0
    0.4269   -5.9952   -4.7882 N   0  0  0  0  0  0  0  0  0  0  0  0
    3.0230   -2.4907    2.2103 O   0  0  0  0  0  0  0  0  0  0  0  0
    1.1879   -5.1433   -5.5881 O   0  0  0  0  0  0  0  0  0  0  0  0
    6.7831   -4.1418   -2.5901 O   0  0  0  0  0  0  0  0  0  0  0  0
    4.0265   -6.0076    0.4987 H   0  0  0  0  0  0  0  0  0  0  0  0
    4.5012   -1.7239    0.5034 H   0  0  0  0  0  0  0  0  0  0  0  0
    5.5820   -6.1750   -1.4081 H   0  0  0  0  0  0  0  0  0  0  0  0
    6.0555   -1.8969   -1.4040 H   0  0  0  0  0  0  0  0  0  0  0  0
    0.7299   -3.5880   -2.6379 H   0  0  0  0  0  0  0  0  0  0  0  0
    2.1775   -2.1381   -4.4079 H   0  0  0  0  0  0  0  0  0  0  0  0
    1.5219   -1.9193    3.5134 H   0  0  0  0  0  0  0  0  0  0  0  0
    3.0227   -2.5159    4.2630 H   0  0  0  0  0  0  0  0  0  0  0  0
    0.7491   -4.0613    2.9581 H   0  0  0  0  0  0  0  0  0  0  0  0
   -1.6767   -5.9575   -2.6200 H   0  0  0  0  0  0  0  0  0  0  0  0
   -0.2786   -5.9230   -1.5227 H   0  0  0  0  0  0  0  0  0  0  0  0
   -0.4884   -7.2794   -2.6450 H   0  0  0  0  0  0  0  0  0  0  0  0
    0.3345   -6.2585    4.1316 H   0  0  0  0  0  0  0  0  0  0  0  0
    1.3574   -6.7384    5.4988 H   0  0  0  0  0  0  0  0  0  0  0  0
    2.0021   -6.7844    3.8343 H   0  0  0  0  0  0  0  0  0  0  0  0
    2.2906   -1.9067   -6.9438 H   0  0  0  0  0  0  0  0  0  0  0  0
    2.4997   -3.6483   -7.1055 H   0  0  0  0  0  0  0  0  0  0  0  0
    2.8392   -4.8059    5.0611 H   0  0  0  0  0  0  0  0  0  0  0  0
    1.1810   -4.3010    5.3955 H   0  0  0  0  0  0  0  0  0  0  0  0
    4.4632   -1.7349   -5.7267 H   0  0  0  0  0  0  0  0  0  0  0  0
    4.6779   -2.4550   -7.3230 H   0  0  0  0  0  0  0  0  0  0  0  0
    4.6796   -4.7377   -6.3073 H   0  0  0  0  0  0  0  0  0  0  0  0
    4.4214   -4.0291   -4.7103 H   0  0  0  0  0  0  0  0  0  0  0  0
    6.8392   -3.5151   -6.5230 H   0  0  0  0  0  0  0  0  0  0  0  0
    6.5979   -2.7650   -4.9516 H   0  0  0  0  0  0  0  0  0  0  0  0
    8.1558   -4.6439   -4.8202 H   0  0  0  0  0  0  0  0  0  0  0  0
    6.9859   -5.7532   -5.5343 H   0  0  0  0  0  0  0  0  0  0  0  0
    5.5116   -5.4631   -3.4997 H   0  0  0  0  0  0  0  0  0  0  0  0
    7.1096   -6.0966   -3.1001 H   0  0  0  0  0  0  0  0  0  0  0  0
    0.1253   -6.9008   -5.1170 H   0  0  0  0  0  0  0  0  0  0  0  0
  1  3  2  0  0  0  0
  1  5  1  0  0  0  0
  2  4  1  0  0  0  0
  2  5  2  0  0  0  0
  3  6  1  0  0  0  0
  4  6  2  0  0  0  0
  5  8  1  0  0  0  0
  6 27  1  0  0  0  0
  7  9  2  0  0  0  0
  7 10  1  0  0  0  0
  8 23  2  0  0  0  0
  8 25  1  0  0  0  0
  9 14  1  0  0  0  0
  9 24  1  0  0  0  0
 10 11  2  0  0  0  0
 10 26  1  0  0  0  0
 11 16  1  0  0  0  0
 12 13  1  0  0  0  0
 12 25  1  0  0  0  0
 13 17  1  0  0  0  0
 13 23  1  0  0  0  0
 15 17  1  0  0  0  0
 16 18  1  0  0  0  0
 18 19  1  0  0  0  0
 19 20  1  0  0  0  0
 20 21  1  0  0  0  0
 21 22  1  0  0  0  0
 22 27  1  0  0  0  0
 24 26  1  0  0  0  0
  1 28  1  0  0  0  0
  2 29  1  0  0  0  0
  3 30  1  0  0  0  0
  4 31  1  0  0  0  0
  7 32  1  0  0  0  0
 11 33  1  0  0  0  0
 12 34  1  0  0  0  0
 12 35  1  0  0  0  0
 13 36  1  0  0  0  0
 14 37  1  0  0  0  0
 14 38  1  0  0  0  0
 14 39  1  0  0  0  0
 15 40  1  0  0  0  0
 15 41  1  0  0  0  0
 15 42  1  0  0  0  0
 16 43  1  0  0  0  0
 16 44  1  0  0  0  0
 17 45  1  0  0  0  0
 17 46  1  0  0  0  0
 18 47  1  0  0  0  0
 18 48  1  0  0  0  0
 19 49  1  0  0  0  0
 19 50  1  0  0  0  0
 20 51  1  0  0  0  0
 20 52  1  0  0  0  0
 21 53  1  0  0  0  0
 21 54  1  0  0  0  0
 22 55  1  0  0  0  0
 22 56  1  0  0  0  0
 24 57  1  0  0  0  0
M  END
$$$$
2RS5.*
  -OEChem-01061012483D

 51 53  0     1  0  0  0  0  0999 V2000
    0.9981   -2.3887   -2.9758 C   0  0  0  0  0  0  0  0  0  0  0  0
    3.2627   -2.2453   -2.1463 C   0  0  0  0  0  0  0  0  0  0  0  0
    1.4733   -2.3179   -4.2853 C   0  0  0  0  0  0  0  0  0  0  0  0
    3.7379   -2.1746   -3.4558 C   0  0  0  0  0  0  0  0  0  0  0  0
    0.3920   -5.7536   -7.3800 C   0  0  0  0  0  0  0  0  0  0  0  0
    1.8928   -2.3523   -1.9063 C   0  0  0  0  0  0  0  0  0  0  0  0
    2.8432   -2.2109   -4.5253 C   0  0  0  0  0  0  0  0  0  0  0  0
   -0.5764   -5.4200   -6.4175 C   0  0  0  0  0  0  0  0  0  0  0  0
    1.4738   -6.1394   -6.6336 C   0  0  0  0  0  0  0  0  0  0  0  0
    2.3640   -3.4950    1.2816 C   0  0  0  0  0  0  0  0  0  0  0  0
    1.3792   -2.4291   -0.4912 C   0  0  1  0  0  0  0  0  0  0  0  0
    0.9163   -3.9553    1.2081 C   0  0  1  0  0  0  0  0  0  0  0  0
   -1.9475   -4.9367   -6.6469 C   0  0  0  0  0  0  0  0  0  0  0  0
    0.7044   -5.4213    1.5155 C   0  0  0  0  0  0  0  0  0  0  0  0
    2.8592   -6.6256   -6.9768 C   0  0  0  0  0  0  0  0  0  0  0  0
    3.9051   -5.5243   -6.7814 C   0  0  0  0  0  0  0  0  0  0  0  0
    3.6304   -4.3289   -7.6954 C   0  0  0  0  0  0  0  0  0  0  0  0
    4.6537   -3.2164   -7.4776 C   0  0  0  0  0  0  0  0  0  0  0  0
    4.6032   -2.6769   -6.0553 C   0  0  0  0  0  0  0  0  0  0  0  0
   -0.1295   -5.5862   -5.1695 N   0  0  0  0  0  0  0  0  0  0  0  0
    0.5678   -3.6583   -0.2117 N   0  3  0  0  0  0  0  0  0  0  0  0
    1.1749   -6.0438   -5.3128 O   0  0  0  0  0  0  0  0  0  0  0  0
    2.4582   -2.3215    0.4549 O   0  0  0  0  0  0  0  0  0  0  0  0
    3.3092   -2.1424   -5.8126 O   0  0  0  0  0  0  0  0  0  0  0  0
   -0.0708   -2.4719   -2.7979 H   0  0  0  0  0  0  0  0  0  0  0  0
    3.9673   -2.2154   -1.3191 H   0  0  0  0  0  0  0  0  0  0  0  0
    0.7721   -2.3467   -5.1148 H   0  0  0  0  0  0  0  0  0  0  0  0
    4.8061   -2.0902   -3.6360 H   0  0  0  0  0  0  0  0  0  0  0  0
    0.3165   -5.7199   -8.4570 H   0  0  0  0  0  0  0  0  0  0  0  0
    2.6712   -3.2464    2.3015 H   0  0  0  0  0  0  0  0  0  0  0  0
    3.0569   -4.2441    0.8817 H   0  0  0  0  0  0  0  0  0  0  0  0
    0.7005   -1.5703   -0.3185 H   0  0  0  0  0  0  0  0  0  0  0  0
    0.2700   -3.3170    1.8212 H   0  0  0  0  0  0  0  0  0  0  0  0
   -2.6624   -5.7748   -6.7163 H   0  0  0  0  0  0  0  0  0  0  0  0
   -2.2964   -4.2694   -5.8382 H   0  0  0  0  0  0  0  0  0  0  0  0
   -2.0332   -4.3497   -7.5794 H   0  0  0  0  0  0  0  0  0  0  0  0
    1.3573   -6.0411    0.8946 H   0  0  0  0  0  0  0  0  0  0  0  0
   -0.3326   -5.7077    1.3195 H   0  0  0  0  0  0  0  0  0  0  0  0
    0.9276   -5.6285    2.5658 H   0  0  0  0  0  0  0  0  0  0  0  0
    3.1124   -7.4933   -6.3539 H   0  0  0  0  0  0  0  0  0  0  0  0
    2.8811   -6.9793   -8.0158 H   0  0  0  0  0  0  0  0  0  0  0  0
    3.9067   -5.1931   -5.7350 H   0  0  0  0  0  0  0  0  0  0  0  0
    4.9071   -5.9214   -6.9880 H   0  0  0  0  0  0  0  0  0  0  0  0
    3.6581   -4.6533   -8.7427 H   0  0  0  0  0  0  0  0  0  0  0  0
    2.6220   -3.9433   -7.5026 H   0  0  0  0  0  0  0  0  0  0  0  0
    5.6653   -3.5836   -7.6909 H   0  0  0  0  0  0  0  0  0  0  0  0
    4.4781   -2.3952   -8.1838 H   0  0  0  0  0  0  0  0  0  0  0  0
    5.3411   -1.8809   -5.9132 H   0  0  0  0  0  0  0  0  0  0  0  0
    4.7931   -3.4731   -5.3284 H   0  0  0  0  0  0  0  0  0  0  0  0
   -0.4408   -3.5048   -0.3488 H   0  0  0  0  0  0  0  0  0  0  0  0
    0.8493   -4.4349   -0.8267 H   0  0  0  0  0  0  0  0  0  0  0  0
  1  3  2  0  0  0  0
  1  6  1  0  0  0  0
  2  4  1  0  0  0  0
  2  6  2  0  0  0  0
  3  7  1  0  0  0  0
  4  7  2  0  0  0  0
  5  8  1  0  0  0  0
  5  9  2  0  0  0  0
  6 11  1  0  0  0  0
  7 24  1  0  0  0  0
  8 13  1  0  0  0  0
  8 20  2  0  0  0  0
  9 15  1  0  0  0  0
  9 22  1  0  0  0  0
 10 12  1  0  0  0  0
 10 23  1  0  0  0  0
 11 21  1  0  0  0  0
 11 23  1  0  0  0  0
 12 14  1  0  0  0  0
 12 21  1  0  0  0  0
 15 16  1  0  0  0  0
 16 17  1  0  0  0  0
 17 18  1  0  0  0  0
 18 19  1  0  0  0  0
 19 24  1  0  0  0  0
 20 22  1  0  0  0  0
  1 25  1  0  0  0  0
  2 26  1  0  0  0  0
  3 27  1  0  0  0  0
  4 28  1  0  0  0  0
  5 29  1  0  0  0  0
 10 30  1  0  0  0  0
 10 31  1  0  0  0  0
 11 32  1  0  0  0  0
 12 33  1  0  0  0  0
 13 34  1  0  0  0  0
 13 35  1  0  0  0  0
 13 36  1  0  0  0  0
 14 37  1  0  0  0  0
 14 38  1  0  0  0  0
 14 39  1  0  0  0  0
 15 40  1  0  0  0  0
 15 41  1  0  0  0  0
 16 42  1  0  0  0  0
 16 43  1  0  0  0  0
 17 44  1  0  0  0  0
 17 45  1  0  0  0  0
 18 46  1  0  0  0  0
 18 47  1  0  0  0  0
 19 48  1  0  0  0  0
 19 49  1  0  0  0  0
 21 50  1  0  0  0  0
 21 51  1  0  0  0  0
M  CHG  1  21   1
M  END
$$$$
