2R04.*
  MOE2007           3D
2R04
 51 53  0  0  1  0  0  0  0  0999 V2000
   37.5580    5.9660  126.2100 O   0  0  0  0  0  0  0  0  0  0  0  0
   36.9980    7.1010  126.8290 N   0  0  0  0  0  0  0  0  0  0  0  0
   37.1520    7.2670  127.8120 H   0  0  0  0  0  0  0  0  0  0  0  0
   36.3550    7.7240  125.8980 C   0  0  0  0  0  0  0  0  0  0  0  0
   35.6370    8.9850  126.2180 C   0  0  0  0  0  0  0  0  0  0  0  0
   36.0300    9.7740  125.6300 H   0  0  0  0  0  0  0  0  0  0  0  0
   35.7640    9.2130  127.2440 H   0  0  0  0  0  0  0  0  0  0  0  0
   34.6060    8.8670  126.0070 H   0  0  0  0  0  0  0  0  0  0  0  0
   36.4510    7.0620  124.6750 C   0  0  0  0  0  0  0  0  0  0  0  0
   35.9610    7.4650  123.8050 H   0  0  0  0  0  0  0  0  0  0  0  0
   37.1980    5.9950  124.9170 C   0  0  0  0  0  0  0  0  0  0  0  0
   37.7100    4.8890  124.1530 C   0  0  0  0  0  0  0  0  0  0  0  0
   37.4060    4.7560  123.1280 H   0  0  0  0  0  0  0  0  0  0  0  0
   38.6450    4.0540  124.9730 C   0  0  0  0  0  0  0  0  0  0  0  0
   39.5090    4.6190  125.2080 H   0  0  0  0  0  0  0  0  0  0  0  0
   38.1620    3.7590  125.8680 H   0  0  0  0  0  0  0  0  0  0  0  0
   39.0330    2.8550  124.2020 C   0  0  0  0  0  0  0  0  0  0  0  0
   38.6370    1.9910  124.6700 H   0  0  0  0  0  0  0  0  0  0  0  0
   38.6510    2.9300  123.2170 H   0  0  0  0  0  0  0  0  0  0  0  0
   40.4790    2.6510  124.0840 C   0  0  0  0  0  0  0  0  0  0  0  0
   40.7550    2.6620  123.0620 H   0  0  0  0  0  0  0  0  0  0  0  0
   40.9880    3.4260  124.5960 H   0  0  0  0  0  0  0  0  0  0  0  0
   40.8930    1.3380  124.6750 C   0  0  0  0  0  0  0  0  0  0  0  0
   41.8420    1.4410  125.1340 H   0  0  0  0  0  0  0  0  0  0  0  0
   40.1820    1.0370  125.3990 H   0  0  0  0  0  0  0  0  0  0  0  0
   40.9820    0.2860  123.6300 C   0  0  0  0  0  0  0  0  0  0  0  0
   40.5810   -0.6190  124.0060 H   0  0  0  0  0  0  0  0  0  0  0  0
   40.4320    0.5880  122.7770 H   0  0  0  0  0  0  0  0  0  0  0  0
   42.3720    0.0100  123.1900 C   0  0  0  0  0  0  0  0  0  0  0  0
   42.5610    0.5170  122.2800 H   0  0  0  0  0  0  0  0  0  0  0  0
   43.0500    0.3480  123.9300 H   0  0  0  0  0  0  0  0  0  0  0  0
   42.4210   -1.4180  123.0290 O   0  0  0  0  0  0  0  0  0  0  0  0
   43.6060   -2.0550  122.8330 C   0  0  0  0  0  0  0  0  0  0  0  0
   43.8880   -2.8800  121.7450 C   0  0  0  0  0  0  0  0  0  0  0  0
   43.1390   -3.0520  120.9910 H   0  0  0  0  0  0  0  0  0  0  0  0
   45.1260   -3.4670  121.6490 C   0  0  0  0  0  0  0  0  0  0  0  0
   45.3570   -4.1030  120.8110 H   0  0  0  0  0  0  0  0  0  0  0  0
   46.0900   -3.2490  122.6250 C   0  0  0  0  0  0  0  0  0  0  0  0
   45.7870   -2.4260  123.7190 C   0  0  0  0  0  0  0  0  0  0  0  0
   46.5250   -2.2550  124.4850 H   0  0  0  0  0  0  0  0  0  0  0  0
   44.5560   -1.8380  123.8180 C   0  0  0  0  0  0  0  0  0  0  0  0
   44.3250   -1.2070  124.6600 H   0  0  0  0  0  0  0  0  0  0  0  0
   47.4090   -3.8530  122.5160 C   0  0  1  0  0  0  0  0  0  0  0  0
   47.5780   -4.4850  123.3490 H   0  0  0  0  0  0  0  0  0  0  0  0
   47.8620   -4.6910  121.4500 N   0  0  0  0  0  0  0  0  0  0  0  0
   49.1440   -5.1060  121.6180 C   0  0  0  0  0  0  0  0  0  0  0  0
   49.6040   -5.7440  120.8820 H   0  0  0  0  0  0  0  0  0  0  0  0
   49.4350   -4.4130  122.9380 C   0  0  0  0  0  0  0  0  0  0  0  0
   49.6820   -5.1370  123.6700 H   0  0  0  0  0  0  0  0  0  0  0  0
   50.2470   -3.7450  122.8140 H   0  0  0  0  0  0  0  0  0  0  0  0
   48.3460   -3.6950  123.3880 O   0  0  0  0  0  0  0  0  0  0  0  0
  1  2  1  0  0  0  0
  1 11  1  0  0  0  0
  2  3  1  0  0  0  0
  2  4  1  0  0  0  0
  4  5  1  0  0  0  0
  4  9  2  0  0  0  0
  5  6  1  0  0  0  0
  5  7  1  0  0  0  0
  5  8  1  0  0  0  0
  9 10  1  0  0  0  0
  9 11  1  0  0  0  0
 11 12  2  0  0  0  0
 12 13  1  0  0  0  0
 12 14  1  0  0  0  0
 14 15  1  0  0  0  0
 14 16  1  0  0  0  0
 14 17  1  0  0  0  0
 17 18  1  0  0  0  0
 17 19  1  0  0  0  0
 17 20  1  0  0  0  0
 20 21  1  0  0  0  0
 20 22  1  0  0  0  0
 20 23  1  0  0  0  0
 23 24  1  0  0  0  0
 23 25  1  0  0  0  0
 23 26  1  0  0  0  0
 26 27  1  0  0  0  0
 26 28  1  0  0  0  0
 26 29  1  0  0  0  0
 29 30  1  0  0  0  0
 29 31  1  0  0  0  0
 29 32  1  0  0  0  0
 32 33  1  0  0  0  0
 33 34  1  0  0  0  0
 33 41  2  0  0  0  0
 34 35  1  0  0  0  0
 34 36  2  0  0  0  0
 36 37  1  0  0  0  0
 36 38  1  0  0  0  0
 38 39  2  0  0  0  0
 38 43  1  0  0  0  0
 39 40  1  0  0  0  0
 39 41  1  0  0  0  0
 41 42  1  0  0  0  0
 43 44  1  0  0  0  0
 43 45  1  0  0  0  0
 43 51  1  0  0  0  0
 45 46  2  0  0  0  0
 46 47  1  0  0  0  0
 46 48  1  0  0  0  0
 48 49  1  0  0  0  0
 48 50  1  0  0  0  0
 48 51  1  0  0  0  0
M  END
$$$$
2R06.*
  MOE2007           3D
2R06
 48 50  0  0  1  0  0  0  0  0999 V2000
   39.2460    4.3820  125.8300 O   0  0  0  0  0  0  0  0  0  0  0  0
   38.1690    5.1920  126.2810 N   0  0  0  0  0  0  0  0  0  0  0  0
   37.6020    5.6520  125.2170 C   0  0  0  0  0  0  0  0  0  0  0  0
   36.4190    6.5480  125.3360 C   0  0  0  0  0  0  0  0  0  0  0  0
   36.6360    7.4810  124.8840 H   0  0  0  0  0  0  0  0  0  0  0  0
   36.1890    6.6960  126.3590 H   0  0  0  0  0  0  0  0  0  0  0  0
   35.5900    6.1050  124.8480 H   0  0  0  0  0  0  0  0  0  0  0  0
   38.2460    5.1930  124.0610 C   0  0  0  0  0  0  0  0  0  0  0  0
   37.8900    5.4940  123.0900 H   0  0  0  0  0  0  0  0  0  0  0  0
   39.2500    4.4110  124.4820 C   0  0  0  0  0  0  0  0  0  0  0  0
   40.3020    3.6100  123.8180 C   0  0  0  0  0  0  0  0  0  0  0  0
   40.5340    4.0410  122.8780 H   0  0  0  0  0  0  0  0  0  0  0  0
   41.1710    3.5980  124.4240 H   0  0  0  0  0  0  0  0  0  0  0  0
   39.8800    2.1680  123.5780 C   0  0  0  0  0  0  0  0  0  0  0  0
   39.6450    1.7100  124.5040 H   0  0  0  0  0  0  0  0  0  0  0  0
   39.0290    2.1490  122.9490 H   0  0  0  0  0  0  0  0  0  0  0  0
   40.9630    1.3310  122.9130 C   0  0  0  0  0  0  0  0  0  0  0  0
   41.1350    1.6920  121.9320 H   0  0  0  0  0  0  0  0  0  0  0  0
   41.8570    1.3980  123.4760 H   0  0  0  0  0  0  0  0  0  0  0  0
   40.6490   -0.1310  122.7810 C   0  0  0  0  0  0  0  0  0  0  0  0
   39.6450   -0.3040  123.0720 H   0  0  0  0  0  0  0  0  0  0  0  0
   40.7810   -0.4310  121.7740 H   0  0  0  0  0  0  0  0  0  0  0  0
   41.5270   -1.0390  123.6390 C   0  0  0  0  0  0  0  0  0  0  0  0
   41.1770   -1.0280  124.6380 H   0  0  0  0  0  0  0  0  0  0  0  0
   41.4860   -2.0280  123.2620 H   0  0  0  0  0  0  0  0  0  0  0  0
   42.8900   -0.5310  123.5760 O   0  0  0  0  0  0  0  0  0  0  0  0
   43.9330   -1.3950  123.3080 C   0  0  0  0  0  0  0  0  0  0  0  0
   43.8370   -2.5550  122.5340 C   0  0  0  0  0  0  0  0  0  0  0  0
   42.8930   -2.8330  122.0960 H   0  0  0  0  0  0  0  0  0  0  0  0
   44.9500   -3.3440  122.3300 C   0  0  0  0  0  0  0  0  0  0  0  0
   44.8750   -4.2370  121.7330 H   0  0  0  0  0  0  0  0  0  0  0  0
   46.1780   -3.0020  122.8860 C   0  0  0  0  0  0  0  0  0  0  0  0
   46.2690   -1.8390  123.6650 C   0  0  0  0  0  0  0  0  0  0  0  0
   47.2110   -1.5590  124.1060 H   0  0  0  0  0  0  0  0  0  0  0  0
   45.1620   -1.0480  123.8710 C   0  0  0  0  0  0  0  0  0  0  0  0
   45.2470   -0.1580  124.4700 H   0  0  0  0  0  0  0  0  0  0  0  0
   47.3700   -3.8250  122.6720 C   0  0  1  0  0  0  0  0  0  0  0  0
   47.7920   -4.0850  123.6080 H   0  0  0  0  0  0  0  0  0  0  0  0
   47.4150   -5.0910  122.0030 N   0  3  0  0  0  0  0  0  0  0  0  0
   46.8200   -5.7480  122.4870 H   0  0  0  0  0  0  0  0  0  0  0  0
   47.0920   -4.9810  121.0540 H   0  0  0  0  0  0  0  0  0  0  0  0
   48.6670   -5.6190  121.9580 C   0  0  0  0  0  0  0  0  0  0  0  0
   48.6740   -6.5560  122.4520 H   0  0  0  0  0  0  0  0  0  0  0  0
   48.9590   -5.7510  120.9480 H   0  0  0  0  0  0  0  0  0  0  0  0
   49.4060   -4.5140  122.6900 C   0  0  0  0  0  0  0  0  0  0  0  0
   49.8630   -4.9110  123.5590 H   0  0  0  0  0  0  0  0  0  0  0  0
   50.1490   -4.1060  122.0550 H   0  0  0  0  0  0  0  0  0  0  0  0
   48.5550   -3.4970  123.0730 O   0  0  0  0  0  0  0  0  0  0  0  0
  1  2  1  0  0  0  0
  1 10  1  0  0  0  0
  2  3  2  0  0  0  0
  3  4  1  0  0  0  0
  3  8  1  0  0  0  0
  4  5  1  0  0  0  0
  4  6  1  0  0  0  0
  4  7  1  0  0  0  0
  8  9  1  0  0  0  0
  8 10  2  0  0  0  0
 10 11  1  0  0  0  0
 11 12  1  0  0  0  0
 11 13  1  0  0  0  0
 11 14  1  0  0  0  0
 14 15  1  0  0  0  0
 14 16  1  0  0  0  0
 14 17  1  0  0  0  0
 17 18  1  0  0  0  0
 17 19  1  0  0  0  0
 17 20  1  0  0  0  0
 20 21  1  0  0  0  0
 20 22  1  0  0  0  0
 20 23  1  0  0  0  0
 23 24  1  0  0  0  0
 23 25  1  0  0  0  0
 23 26  1  0  0  0  0
 26 27  1  0  0  0  0
 27 28  1  0  0  0  0
 27 35  2  0  0  0  0
 28 29  1  0  0  0  0
 28 30  2  0  0  0  0
 30 31  1  0  0  0  0
 30 32  1  0  0  0  0
 32 33  2  0  0  0  0
 32 37  1  0  0  0  0
 33 34  1  0  0  0  0
 33 35  1  0  0  0  0
 35 36  1  0  0  0  0
 37 38  1  0  0  0  0
 37 39  1  0  0  0  0
 37 48  1  0  0  0  0
 39 40  1  0  0  0  0
 39 41  1  0  0  0  0
 39 42  1  0  0  0  0
 42 43  1  0  0  0  0
 42 44  1  0  0  0  0
 42 45  1  0  0  0  0
 45 46  1  0  0  0  0
 45 47  1  0  0  0  0
 45 48  1  0  0  0  0
M  CHG  1  39   1
M  END
$$$$
2R07.*
  MOE2007           3D
2R07
 48 50  0  0  1  0  0  0  0  0999 V2000
   38.1800    3.9050  125.6580 O   0  0  0  0  0  0  0  0  0  0  0  0
   37.2290    4.9610  125.6460 N   0  0  0  0  0  0  0  0  0  0  0  0
   37.7740    5.9190  124.9780 C   0  0  0  0  0  0  0  0  0  0  0  0
   37.0460    7.2020  124.7690 C   0  0  0  0  0  0  0  0  0  0  0  0
   37.6040    7.9970  125.1890 H   0  0  0  0  0  0  0  0  0  0  0  0
   36.0970    7.1500  125.2370 H   0  0  0  0  0  0  0  0  0  0  0  0
   36.9180    7.3700  123.7310 H   0  0  0  0  0  0  0  0  0  0  0  0
   39.0560    5.5620  124.5310 C   0  0  0  0  0  0  0  0  0  0  0  0
   39.6400    6.2620  123.9570 H   0  0  0  0  0  0  0  0  0  0  0  0
   39.2700    4.3130  124.9680 C   0  0  0  0  0  0  0  0  0  0  0  0
   40.3920    3.3500  124.8930 C   0  0  0  0  0  0  0  0  0  0  0  0
   41.2880    3.8700  124.6730 H   0  0  0  0  0  0  0  0  0  0  0  0
   40.4920    2.8510  125.8220 H   0  0  0  0  0  0  0  0  0  0  0  0
   40.2060    2.2820  123.8160 C   0  0  0  0  0  0  0  0  0  0  0  0
   39.2280    1.8800  123.8820 H   0  0  0  0  0  0  0  0  0  0  0  0
   40.3460    2.7160  122.8600 H   0  0  0  0  0  0  0  0  0  0  0  0
   41.2130    1.1400  123.9850 C   0  0  0  0  0  0  0  0  0  0  0  0
   42.1900    1.5010  123.7930 H   0  0  0  0  0  0  0  0  0  0  0  0
   41.1620    0.7680  124.9750 H   0  0  0  0  0  0  0  0  0  0  0  0
   40.9950   -0.0350  123.0660 C   0  0  0  0  0  0  0  0  0  0  0  0
   39.9690   -0.2960  123.0650 H   0  0  0  0  0  0  0  0  0  0  0  0
   41.2950    0.2240  122.0840 H   0  0  0  0  0  0  0  0  0  0  0  0
   41.7680   -1.2830  123.4500 C   0  0  0  0  0  0  0  0  0  0  0  0
   41.3420   -1.7080  124.3210 H   0  0  0  0  0  0  0  0  0  0  0  0
   41.7220   -1.9840  122.6570 H   0  0  0  0  0  0  0  0  0  0  0  0
   43.1310   -0.8940  123.6960 O   0  0  0  0  0  0  0  0  0  0  0  0
   44.1590   -1.7140  123.3070 C   0  0  0  0  0  0  0  0  0  0  0  0
   44.0220   -2.8970  122.5780 C   0  0  0  0  0  0  0  0  0  0  0  0
   43.0450   -3.2310  122.2730 H   0  0  0  0  0  0  0  0  0  0  0  0
   45.1380   -3.6330  122.2500 C   0  0  0  0  0  0  0  0  0  0  0  0
   45.0340   -4.5460  121.6880 H   0  0  0  0  0  0  0  0  0  0  0  0
   46.4040   -3.2160  122.6350 C   0  0  0  0  0  0  0  0  0  0  0  0
   46.5220   -2.0230  123.3650 C   0  0  0  0  0  0  0  0  0  0  0  0
   47.4940   -1.6740  123.6740 H   0  0  0  0  0  0  0  0  0  0  0  0
   45.4170   -1.2880  123.6930 C   0  0  0  0  0  0  0  0  0  0  0  0
   47.6260   -3.9580  122.3290 C   0  0  2  0  0  0  0  0  0  0  0  0
   48.2610   -3.3610  121.7290 H   0  0  0  0  0  0  0  0  0  0  0  0
   47.7060   -5.2030  121.6350 N   0  0  0  0  0  0  0  0  0  0  0  0
   48.9790   -5.6560  121.5080 C   0  0  0  0  0  0  0  0  0  0  0  0
   49.1710   -6.5850  120.9990 H   0  0  0  0  0  0  0  0  0  0  0  0
   49.6940   -4.5260  122.2230 C   0  0  0  0  0  0  0  0  0  0  0  0
   50.2260   -4.9140  123.0520 H   0  0  0  0  0  0  0  0  0  0  0  0
   50.3710   -4.0590  121.5560 H   0  0  0  0  0  0  0  0  0  0  0  0
   48.8130   -3.5750  122.6810 O   0  0  0  0  0  0  0  0  0  0  0  0
   45.6160    0.1680  124.5910 C   0  0  0  0  0  0  0  0  0  0  0  0
   46.0750   -0.0510  125.5200 H   0  0  0  0  0  0  0  0  0  0  0  0
   44.6700    0.6110  124.7600 H   0  0  0  0  0  0  0  0  0  0  0  0
   46.2280    0.8380  124.0450 H   0  0  0  0  0  0  0  0  0  0  0  0
  1  2  1  0  0  0  0
  1 10  1  0  0  0  0
  2  3  2  0  0  0  0
  3  4  1  0  0  0  0
  3  8  1  0  0  0  0
  4  5  1  0  0  0  0
  4  6  1  0  0  0  0
  4  7  1  0  0  0  0
  8  9  1  0  0  0  0
  8 10  2  0  0  0  0
 10 11  1  0  0  0  0
 11 12  1  0  0  0  0
 11 13  1  0  0  0  0
 11 14  1  0  0  0  0
 14 15  1  0  0  0  0
 14 16  1  0  0  0  0
 14 17  1  0  0  0  0
 17 18  1  0  0  0  0
 17 19  1  0  0  0  0
 17 20  1  0  0  0  0
 20 21  1  0  0  0  0
 20 22  1  0  0  0  0
 20 23  1  0  0  0  0
 23 24  1  0  0  0  0
 23 25  1  0  0  0  0
 23 26  1  0  0  0  0
 26 27  1  0  0  0  0
 27 28  1  0  0  0  0
 27 35  2  0  0  0  0
 28 29  1  0  0  0  0
 28 30  2  0  0  0  0
 30 31  1  0  0  0  0
 30 32  1  0  0  0  0
 32 33  2  0  0  0  0
 32 36  1  0  0  0  0
 33 34  1  0  0  0  0
 33 35  1  0  0  0  0
 35 45  1  0  0  0  0
 36 37  1  0  0  0  0
 36 38  1  0  0  0  0
 36 44  1  0  0  0  0
 38 39  2  0  0  0  0
 39 40  1  0  0  0  0
 39 41  1  0  0  0  0
 41 42  1  0  0  0  0
 41 43  1  0  0  0  0
 41 44  1  0  0  0  0
 45 46  1  0  0  0  0
 45 47  1  0  0  0  0
 45 48  1  0  0  0  0
M  END
$$$$
2RM2.*
  MOE2007           3D
2RM2
 57 59  0  0  1  0  0  0  0  0999 V2000
   46.5150   -4.2490  121.3680 O   0  0  0  0  0  0  0  0  0  0  0  0
   47.6430   -5.0460  121.0360 N   0  0  0  0  0  0  0  0  0  0  0  0
   48.5040   -4.8540  121.9780 C   0  0  0  0  0  0  0  0  0  0  0  0
   49.8190   -5.5520  121.9350 C   0  0  0  0  0  0  0  0  0  0  0  0
   50.5980   -4.8360  121.9110 H   0  0  0  0  0  0  0  0  0  0  0  0
   49.8690   -6.1590  121.0690 H   0  0  0  0  0  0  0  0  0  0  0  0
   49.9240   -6.1590  122.7970 H   0  0  0  0  0  0  0  0  0  0  0  0
   48.0120   -3.9600  122.9380 C   0  0  0  0  0  0  0  0  0  0  0  0
   48.6170   -3.6980  123.7900 H   0  0  0  0  0  0  0  0  0  0  0  0
   46.7840   -3.6110  122.5280 C   0  0  0  0  0  0  0  0  0  0  0  0
   45.7220   -2.7200  123.0530 C   0  0  0  0  0  0  0  0  0  0  0  0
   45.2190   -3.2030  123.8500 H   0  0  0  0  0  0  0  0  0  0  0  0
   46.1560   -1.8200  123.4030 H   0  0  0  0  0  0  0  0  0  0  0  0
   44.6760   -2.3480  122.0130 C   0  0  0  0  0  0  0  0  0  0  0  0
   45.1590   -2.0260  121.1270 H   0  0  0  0  0  0  0  0  0  0  0  0
   44.0740   -3.1930  121.8000 H   0  0  0  0  0  0  0  0  0  0  0  0
   43.7530   -1.2260  122.4710 C   0  0  0  0  0  0  0  0  0  0  0  0
   44.3330   -0.4050  122.8060 H   0  0  0  0  0  0  0  0  0  0  0  0
   43.1420   -0.9190  121.6620 H   0  0  0  0  0  0  0  0  0  0  0  0
   42.8210   -1.5770  123.6000 C   0  0  0  0  0  0  0  0  0  0  0  0
   42.1310   -2.3100  123.2720 H   0  0  0  0  0  0  0  0  0  0  0  0
   43.3810   -1.9580  124.4140 H   0  0  0  0  0  0  0  0  0  0  0  0
   42.0060   -0.3940  124.1270 C   0  0  0  0  0  0  0  0  0  0  0  0
   41.5900   -0.6440  125.0680 H   0  0  0  0  0  0  0  0  0  0  0  0
   42.6370    0.4500  124.2330 H   0  0  0  0  0  0  0  0  0  0  0  0
   40.8560    0.0090  123.2140 C   0  0  0  0  0  0  0  0  0  0  0  0
   41.0460   -0.3400  122.2330 H   0  0  0  0  0  0  0  0  0  0  0  0
   39.9550   -0.4170  123.5730 H   0  0  0  0  0  0  0  0  0  0  0  0
   40.6180    1.5120  123.1070 C   0  0  0  0  0  0  0  0  0  0  0  0
   41.5470    2.0110  123.0080 H   0  0  0  0  0  0  0  0  0  0  0  0
   40.0160    1.7140  122.2590 H   0  0  0  0  0  0  0  0  0  0  0  0
   39.9360    1.9520  124.3280 O   0  0  0  0  0  0  0  0  0  0  0  0
   39.2480    3.1800  124.4050 C   0  0  0  0  0  0  0  0  0  0  0  0
   38.7140    3.9290  123.3320 C   0  0  0  0  0  0  0  0  0  0  0  0
   38.8560    3.5940  122.3180 H   0  0  0  0  0  0  0  0  0  0  0  0
   38.0030    5.0980  123.5660 C   0  0  0  0  0  0  0  0  0  0  0  0
   37.5900    5.6520  122.7400 H   0  0  0  0  0  0  0  0  0  0  0  0
   37.8120    5.5730  124.8530 C   0  0  0  0  0  0  0  0  0  0  0  0
   38.3750    4.8640  125.9170 C   0  0  0  0  0  0  0  0  0  0  0  0
   38.2620    5.2260  126.9250 H   0  0  0  0  0  0  0  0  0  0  0  0
   39.0800    3.6980  125.6950 C   0  0  0  0  0  0  0  0  0  0  0  0
   39.7220    2.8710  127.0550 Cl  0  0  0  0  0  0  0  0  0  0  0  0
   37.0020    6.7700  125.1160 C   0  0  2  0  0  0  0  0  0  0  0  0
   37.4550    7.6110  124.6600 H   0  0  0  0  0  0  0  0  0  0  0  0
   36.6820    7.3110  126.4060 N   0  3  0  0  0  0  0  0  0  0  0  0
   36.1850    6.6190  126.9480 H   0  0  0  0  0  0  0  0  0  0  0  0
   37.5330    7.5650  126.8850 H   0  0  0  0  0  0  0  0  0  0  0  0
   35.8980    8.4230  126.3340 C   0  0  1  0  0  0  0  0  0  0  0  0
   34.9860    8.2450  126.8420 H   0  0  0  0  0  0  0  0  0  0  0  0
   36.0310    9.8310  126.7700 C   0  0  0  0  0  0  0  0  0  0  0  0
   36.9300    9.9480  127.3180 H   0  0  0  0  0  0  0  0  0  0  0  0
   35.2080   10.0900  127.3830 H   0  0  0  0  0  0  0  0  0  0  0  0
   36.0520   10.4630  125.9200 H   0  0  0  0  0  0  0  0  0  0  0  0
   35.7720    8.5130  124.8250 C   0  0  0  0  0  0  0  0  0  0  0  0
   34.7510    8.4460  124.5520 H   0  0  0  0  0  0  0  0  0  0  0  0
   36.1670    9.4370  124.4930 H   0  0  0  0  0  0  0  0  0  0  0  0
   36.4580    7.4950  124.1930 O   0  0  0  0  0  0  0  0  0  0  0  0
  1  2  1  0  0  0  0
  1 10  1  0  0  0  0
  2  3  2  0  0  0  0
  3  4  1  0  0  0  0
  3  8  1  0  0  0  0
  4  5  1  0  0  0  0
  4  6  1  0  0  0  0
  4  7  1  0  0  0  0
  8  9  1  0  0  0  0
  8 10  2  0  0  0  0
 10 11  1  0  0  0  0
 11 12  1  0  0  0  0
 11 13  1  0  0  0  0
 11 14  1  0  0  0  0
 14 15  1  0  0  0  0
 14 16  1  0  0  0  0
 14 17  1  0  0  0  0
 17 18  1  0  0  0  0
 17 19  1  0  0  0  0
 17 20  1  0  0  0  0
 20 21  1  0  0  0  0
 20 22  1  0  0  0  0
 20 23  1  0  0  0  0
 23 24  1  0  0  0  0
 23 25  1  0  0  0  0
 23 26  1  0  0  0  0
 26 27  1  0  0  0  0
 26 28  1  0  0  0  0
 26 29  1  0  0  0  0
 29 30  1  0  0  0  0
 29 31  1  0  0  0  0
 29 32  1  0  0  0  0
 32 33  1  0  0  0  0
 33 34  1  0  0  0  0
 33 41  2  0  0  0  0
 34 35  1  0  0  0  0
 34 36  2  0  0  0  0
 36 37  1  0  0  0  0
 36 38  1  0  0  0  0
 38 39  2  0  0  0  0
 38 43  1  0  0  0  0
 39 40  1  0  0  0  0
 39 41  1  0  0  0  0
 41 42  1  0  0  0  0
 43 44  1  0  0  0  0
 43 45  1  0  0  0  0
 43 57  1  0  0  0  0
 45 46  1  0  0  0  0
 45 47  1  0  0  0  0
 45 48  1  0  0  0  0
 48 49  1  0  0  0  0
 48 50  1  0  0  0  0
 48 54  1  0  0  0  0
 50 51  1  0  0  0  0
 50 52  1  0  0  0  0
 50 53  1  0  0  0  0
 54 55  1  0  0  0  0
 54 56  1  0  0  0  0
 54 57  1  0  0  0  0
M  CHG  1  45   1
M  END
$$$$
2RR1.*
  MOE2007           3D
2RR1
 57 59  0  0  1  0  0  0  0  0999 V2000
   46.5950   -4.1800  121.7520 O   0  0  0  0  0  0  0  0  0  0  0  0
   47.7340   -4.9750  121.4540 N   0  0  0  0  0  0  0  0  0  0  0  0
   48.5800   -4.7550  122.4040 C   0  0  0  0  0  0  0  0  0  0  0  0
   49.9020   -5.4430  122.3990 C   0  0  0  0  0  0  0  0  0  0  0  0
   50.6750   -4.7200  122.3700 H   0  0  0  0  0  0  0  0  0  0  0  0
   49.9710   -6.0680  121.5470 H   0  0  0  0  0  0  0  0  0  0  0  0
   49.9980   -6.0290  123.2760 H   0  0  0  0  0  0  0  0  0  0  0  0
   48.0660   -3.8480  123.3360 C   0  0  0  0  0  0  0  0  0  0  0  0
   48.6560   -3.5630  124.1910 H   0  0  0  0  0  0  0  0  0  0  0  0
   46.8420   -3.5160  122.9020 C   0  0  0  0  0  0  0  0  0  0  0  0
   45.7730   -2.6250  123.4100 C   0  0  0  0  0  0  0  0  0  0  0  0
   45.3470   -3.0460  124.2820 H   0  0  0  0  0  0  0  0  0  0  0  0
   46.1840   -1.6760  123.6400 H   0  0  0  0  0  0  0  0  0  0  0  0
   44.6430   -2.3970  122.4220 C   0  0  0  0  0  0  0  0  0  0  0  0
   45.0470   -2.2060  121.4610 H   0  0  0  0  0  0  0  0  0  0  0  0
   44.0300   -3.2600  122.3820 H   0  0  0  0  0  0  0  0  0  0  0  0
   43.7640   -1.2150  122.8040 C   0  0  0  0  0  0  0  0  0  0  0  0
   44.3080   -0.5590  123.4320 H   0  0  0  0  0  0  0  0  0  0  0  0
   43.4660   -0.6990  121.9280 H   0  0  0  0  0  0  0  0  0  0  0  0
   42.5060   -1.5680  123.5410 C   0  0  0  0  0  0  0  0  0  0  0  0
   41.8220   -2.0250  122.8740 H   0  0  0  0  0  0  0  0  0  0  0  0
   42.7340   -2.2390  124.3280 H   0  0  0  0  0  0  0  0  0  0  0  0
   41.7960   -0.3750  124.1610 C   0  0  0  0  0  0  0  0  0  0  0  0
   41.2400   -0.6940  125.0040 H   0  0  0  0  0  0  0  0  0  0  0  0
   42.5130    0.3450  124.4630 H   0  0  0  0  0  0  0  0  0  0  0  0
   40.8380    0.3050  123.2110 C   0  0  0  0  0  0  0  0  0  0  0  0
   41.2150    0.2400  122.2240 H   0  0  0  0  0  0  0  0  0  0  0  0
   39.8940   -0.1730  123.2600 H   0  0  0  0  0  0  0  0  0  0  0  0
   40.6170    1.7580  123.5080 C   0  0  0  0  0  0  0  0  0  0  0  0
   41.5480    2.2270  123.6900 H   0  0  0  0  0  0  0  0  0  0  0  0
   40.1440    2.2190  122.6800 H   0  0  0  0  0  0  0  0  0  0  0  0
   39.7740    1.8220  124.6790 O   0  0  0  0  0  0  0  0  0  0  0  0
   39.1490    2.9980  125.0040 C   0  0  0  0  0  0  0  0  0  0  0  0
   39.2140    3.6260  126.2500 C   0  0  0  0  0  0  0  0  0  0  0  0
   39.7690    3.1720  127.0530 H   0  0  0  0  0  0  0  0  0  0  0  0
   38.5680    4.8250  126.4420 C   0  0  0  0  0  0  0  0  0  0  0  0
   38.6220    5.3190  127.3970 H   0  0  0  0  0  0  0  0  0  0  0  0
   37.8410    5.4130  125.4160 C   0  0  0  0  0  0  0  0  0  0  0  0
   37.7500    4.7570  124.1800 C   0  0  0  0  0  0  0  0  0  0  0  0
   37.1680    5.1900  123.3820 H   0  0  0  0  0  0  0  0  0  0  0  0
   38.3980    3.5650  123.9810 C   0  0  0  0  0  0  0  0  0  0  0  0
   38.3240    3.0690  123.0280 H   0  0  0  0  0  0  0  0  0  0  0  0
   37.2220    6.7240  125.6030 C   0  0  1  0  0  0  0  0  0  0  0  0
   36.1680    6.6220  125.5890 H   0  0  0  0  0  0  0  0  0  0  0  0
   37.3940    7.5760  126.7390 N   0  3  0  0  0  0  0  0  0  0  0  0
   37.0590    7.1060  127.5660 H   0  0  0  0  0  0  0  0  0  0  0  0
   38.3720    7.7970  126.8500 H   0  0  0  0  0  0  0  0  0  0  0  0
   36.7160    8.7490  126.6270 C   0  0  2  0  0  0  0  0  0  0  0  0
   37.4010    9.5560  126.6520 H   0  0  0  0  0  0  0  0  0  0  0  0
   35.6640    9.4360  127.4050 C   0  0  0  0  0  0  0  0  0  0  0  0
   34.7830    9.5070  126.8220 H   0  0  0  0  0  0  0  0  0  0  0  0
   35.9950   10.4080  127.6640 H   0  0  0  0  0  0  0  0  0  0  0  0
   35.4610    8.8860  128.2870 H   0  0  0  0  0  0  0  0  0  0  0  0
   36.0820    8.5130  125.2680 C   0  0  0  0  0  0  0  0  0  0  0  0
   35.0270    8.5430  125.3610 H   0  0  0  0  0  0  0  0  0  0  0  0
   36.3980    9.2670  124.5950 H   0  0  0  0  0  0  0  0  0  0  0  0
   36.4370    7.2870  124.7450 O   0  0  0  0  0  0  0  0  0  0  0  0
  1  2  1  0  0  0  0
  1 10  1  0  0  0  0
  2  3  2  0  0  0  0
  3  4  1  0  0  0  0
  3  8  1  0  0  0  0
  4  5  1  0  0  0  0
  4  6  1  0  0  0  0
  4  7  1  0  0  0  0
  8  9  1  0  0  0  0
  8 10  2  0  0  0  0
 10 11  1  0  0  0  0
 11 12  1  0  0  0  0
 11 13  1  0  0  0  0
 11 14  1  0  0  0  0
 14 15  1  0  0  0  0
 14 16  1  0  0  0  0
 14 17  1  0  0  0  0
 17 18  1  0  0  0  0
 17 19  1  0  0  0  0
 17 20  1  0  0  0  0
 20 21  1  0  0  0  0
 20 22  1  0  0  0  0
 20 23  1  0  0  0  0
 23 24  1  0  0  0  0
 23 25  1  0  0  0  0
 23 26  1  0  0  0  0
 26 27  1  0  0  0  0
 26 28  1  0  0  0  0
 26 29  1  0  0  0  0
 29 30  1  0  0  0  0
 29 31  1  0  0  0  0
 29 32  1  0  0  0  0
 32 33  1  0  0  0  0
 33 34  1  0  0  0  0
 33 41  2  0  0  0  0
 34 35  1  0  0  0  0
 34 36  2  0  0  0  0
 36 37  1  0  0  0  0
 36 38  1  0  0  0  0
 38 39  2  0  0  0  0
 38 43  1  0  0  0  0
 39 40  1  0  0  0  0
 39 41  1  0  0  0  0
 41 42  1  0  0  0  0
 43 44  1  0  0  0  0
 43 45  1  0  0  0  0
 43 57  1  0  0  0  0
 45 46  1  0  0  0  0
 45 47  1  0  0  0  0
 45 48  1  0  0  0  0
 48 49  1  0  0  0  0
 48 50  1  0  0  0  0
 48 54  1  0  0  0  0
 50 51  1  0  0  0  0
 50 52  1  0  0  0  0
 50 53  1  0  0  0  0
 54 55  1  0  0  0  0
 54 56  1  0  0  0  0
 54 57  1  0  0  0  0
M  CHG  1  45   1
M  END
$$$$
2RS1.*
  MOE2007           3D
2RS1
 54 56  0  0  1  0  0  0  0  0999 V2000
   46.5550   -4.1390  121.6960 O   0  0  0  0  0  0  0  0  0  0  0  0
   47.6870   -4.9340  121.3870 N   0  0  0  0  0  0  0  0  0  0  0  0
   47.6910   -5.5040  120.5540 H   0  0  0  0  0  0  0  0  0  0  0  0
   48.5360   -4.7260  122.3360 C   0  0  0  0  0  0  0  0  0  0  0  0
   49.8500   -5.4210  122.3140 C   0  0  0  0  0  0  0  0  0  0  0  0
   50.6280   -4.7030  122.2870 H   0  0  0  0  0  0  0  0  0  0  0  0
   49.9080   -6.0370  121.4540 H   0  0  0  0  0  0  0  0  0  0  0  0
   49.9480   -6.0170  123.1830 H   0  0  0  0  0  0  0  0  0  0  0  0
   48.0310   -3.8220  123.2810 C   0  0  0  0  0  0  0  0  0  0  0  0
   48.6260   -3.5490  124.1350 H   0  0  0  0  0  0  0  0  0  0  0  0
   46.8110   -3.4860  122.8480 C   0  0  0  0  0  0  0  0  0  0  0  0
   45.7380   -2.6010  123.3330 C   0  0  0  0  0  0  0  0  0  0  0  0
   45.8960   -1.9930  124.2080 H   0  0  0  0  0  0  0  0  0  0  0  0
   44.4860   -2.6710  122.4860 C   0  0  0  0  0  0  0  0  0  0  0  0
   44.7540   -2.8080  121.4710 H   0  0  0  0  0  0  0  0  0  0  0  0
   43.8880   -3.4840  122.8060 H   0  0  0  0  0  0  0  0  0  0  0  0
   43.6540   -1.4100  122.5840 C   0  0  0  0  0  0  0  0  0  0  0  0
   44.2560   -0.6170  122.9460 H   0  0  0  0  0  0  0  0  0  0  0  0
   43.2780   -1.1600  121.6270 H   0  0  0  0  0  0  0  0  0  0  0  0
   42.4720   -1.5070  123.5000 C   0  0  0  0  0  0  0  0  0  0  0  0
   41.6790   -2.0020  123.0010 H   0  0  0  0  0  0  0  0  0  0  0  0
   42.7400   -2.0530  124.3660 H   0  0  0  0  0  0  0  0  0  0  0  0
   41.9400   -0.1570  123.9640 C   0  0  0  0  0  0  0  0  0  0  0  0
   41.7240   -0.2000  125.0000 H   0  0  0  0  0  0  0  0  0  0  0  0
   42.6700    0.5900  123.7860 H   0  0  0  0  0  0  0  0  0  0  0  0
   40.6700    0.2440  123.2350 C   0  0  0  0  0  0  0  0  0  0  0  0
   40.7240   -0.0780  122.2280 H   0  0  0  0  0  0  0  0  0  0  0  0
   39.8360   -0.2060  123.7060 H   0  0  0  0  0  0  0  0  0  0  0  0
   40.4000    1.7260  123.2010 C   0  0  0  0  0  0  0  0  0  0  0  0
   41.2440    2.2300  122.8060 H   0  0  0  0  0  0  0  0  0  0  0  0
   39.5570    1.9170  122.5890 H   0  0  0  0  0  0  0  0  0  0  0  0
   40.1530    2.1180  124.5600 O   0  0  0  0  0  0  0  0  0  0  0  0
   39.3710    3.2070  124.8740 C   0  0  0  0  0  0  0  0  0  0  0  0
   39.0490    3.5860  126.1770 C   0  0  0  0  0  0  0  0  0  0  0  0
   39.4040    3.0020  127.0110 H   0  0  0  0  0  0  0  0  0  0  0  0
   38.2780    4.7070  126.3970 C   0  0  0  0  0  0  0  0  0  0  0  0
   38.0320    5.0030  127.4020 H   0  0  0  0  0  0  0  0  0  0  0  0
   37.8080    5.4680  125.3390 C   0  0  0  0  0  0  0  0  0  0  0  0
   38.1050    5.0700  124.0260 C   0  0  0  0  0  0  0  0  0  0  0  0
   37.7270    5.6380  123.1930 H   0  0  0  0  0  0  0  0  0  0  0  0
   38.8810    3.9500  123.7980 C   0  0  0  0  0  0  0  0  0  0  0  0
   39.1080    3.6510  122.7890 H   0  0  0  0  0  0  0  0  0  0  0  0
   37.0760    6.7060  125.5940 C   0  0  0  0  0  0  0  0  0  0  0  0
   36.6120    7.1530  126.8660 N   0  0  0  0  0  0  0  0  0  0  0  0
   36.0060    8.3600  126.8140 C   0  0  1  0  0  0  0  0  0  0  0  0
   35.0140    8.2730  127.1730 H   0  0  0  0  0  0  0  0  0  0  0  0
   36.2960    9.6730  127.4380 C   0  0  0  0  0  0  0  0  0  0  0  0
   37.1160    9.5750  128.1010 H   0  0  0  0  0  0  0  0  0  0  0  0
   35.4460   10.0040  127.9750 H   0  0  0  0  0  0  0  0  0  0  0  0
   36.5340   10.3770  126.6840 H   0  0  0  0  0  0  0  0  0  0  0  0
   36.1270    8.6080  125.3170 C   0  0  0  0  0  0  0  0  0  0  0  0
   35.1600    8.7130  124.8970 H   0  0  0  0  0  0  0  0  0  0  0  0
   36.6810    9.4950  125.1500 H   0  0  0  0  0  0  0  0  0  0  0  0
   36.7680    7.5660  124.6810 O   0  0  0  0  0  0  0  0  0  0  0  0
  1  2  1  0  0  0  0
  1 11  1  0  0  0  0
  2  3  1  0  0  0  0
  2  4  1  0  0  0  0
  4  5  1  0  0  0  0
  4  9  2  0  0  0  0
  5  6  1  0  0  0  0
  5  7  1  0  0  0  0
  5  8  1  0  0  0  0
  9 10  1  0  0  0  0
  9 11  1  0  0  0  0
 11 12  2  0  0  0  0
 12 13  1  0  0  0  0
 12 14  1  0  0  0  0
 14 15  1  0  0  0  0
 14 16  1  0  0  0  0
 14 17  1  0  0  0  0
 17 18  1  0  0  0  0
 17 19  1  0  0  0  0
 17 20  1  0  0  0  0
 20 21  1  0  0  0  0
 20 22  1  0  0  0  0
 20 23  1  0  0  0  0
 23 24  1  0  0  0  0
 23 25  1  0  0  0  0
 23 26  1  0  0  0  0
 26 27  1  0  0  0  0
 26 28  1  0  0  0  0
 26 29  1  0  0  0  0
 29 30  1  0  0  0  0
 29 31  1  0  0  0  0
 29 32  1  0  0  0  0
 32 33  1  0  0  0  0
 33 34  1  0  0  0  0
 33 41  2  0  0  0  0
 34 35  1  0  0  0  0
 34 36  2  0  0  0  0
 36 37  1  0  0  0  0
 36 38  1  0  0  0  0
 38 39  2  0  0  0  0
 38 43  1  0  0  0  0
 39 40  1  0  0  0  0
 39 41  1  0  0  0  0
 41 42  1  0  0  0  0
 43 44  2  0  0  0  0
 43 54  1  0  0  0  0
 44 45  1  0  0  0  0
 45 46  1  0  0  0  0
 45 47  1  0  0  0  0
 45 51  1  0  0  0  0
 47 48  1  0  0  0  0
 47 49  1  0  0  0  0
 47 50  1  0  0  0  0
 51 52  1  0  0  0  0
 51 53  1  0  0  0  0
 51 54  1  0  0  0  0
M  END
$$$$
2RS3.*
  MOE2007           3D
2RS3
 57 59  0  0  1  0  0  0  0  0999 V2000
   46.4650   -4.1590  121.7230 O   0  0  0  0  0  0  0  0  0  0  0  0
   47.5900   -4.9740  121.3950 N   0  0  0  0  0  0  0  0  0  0  0  0
   47.5740   -5.5460  120.5650 H   0  0  0  0  0  0  0  0  0  0  0  0
   48.4560   -4.7650  122.3370 C   0  0  0  0  0  0  0  0  0  0  0  0
   49.7620   -5.4740  122.2960 C   0  0  0  0  0  0  0  0  0  0  0  0
   50.5470   -4.7650  122.2540 H   0  0  0  0  0  0  0  0  0  0  0  0
   49.8000   -6.0940  121.4390 H   0  0  0  0  0  0  0  0  0  0  0  0
   49.8680   -6.0680  123.1670 H   0  0  0  0  0  0  0  0  0  0  0  0
   47.9720   -3.8540  123.2830 C   0  0  0  0  0  0  0  0  0  0  0  0
   48.5800   -3.5820  124.1290 H   0  0  0  0  0  0  0  0  0  0  0  0
   46.7440   -3.5020  122.8670 C   0  0  0  0  0  0  0  0  0  0  0  0
   45.6810   -2.6030  123.3630 C   0  0  0  0  0  0  0  0  0  0  0  0
   45.9040   -1.8750  124.1250 H   0  0  0  0  0  0  0  0  0  0  0  0
   44.3340   -2.8420  122.6900 C   0  0  0  0  0  0  0  0  0  0  0  0
   44.4890   -3.2520  121.7260 H   0  0  0  0  0  0  0  0  0  0  0  0
   43.7630   -3.5160  123.2730 H   0  0  0  0  0  0  0  0  0  0  0  0
   43.5360   -1.5640  122.5330 C   0  0  0  0  0  0  0  0  0  0  0  0
   44.1600   -0.7310  122.7340 H   0  0  0  0  0  0  0  0  0  0  0  0
   43.1670   -1.4970  121.5430 H   0  0  0  0  0  0  0  0  0  0  0  0
   42.3420   -1.3730  123.4060 C   0  0  0  0  0  0  0  0  0  0  0  0
   41.4760   -1.7090  122.8970 H   0  0  0  0  0  0  0  0  0  0  0  0
   42.4650   -1.9290  124.2980 H   0  0  0  0  0  0  0  0  0  0  0  0
   42.0680    0.0620  123.8250 C   0  0  0  0  0  0  0  0  0  0  0  0
   41.9020    0.0990  124.8700 H   0  0  0  0  0  0  0  0  0  0  0  0
   42.9020    0.6670  123.5790 H   0  0  0  0  0  0  0  0  0  0  0  0
   40.8650    0.6890  123.1680 C   0  0  0  0  0  0  0  0  0  0  0  0
   40.9760    0.6500  122.1160 H   0  0  0  0  0  0  0  0  0  0  0  0
   39.9920    0.1590  123.4500 H   0  0  0  0  0  0  0  0  0  0  0  0
   40.6430    2.1340  123.5360 C   0  0  0  0  0  0  0  0  0  0  0  0
   41.5500    2.5510  123.8900 H   0  0  0  0  0  0  0  0  0  0  0  0
   40.3170    2.6700  122.6830 H   0  0  0  0  0  0  0  0  0  0  0  0
   39.6330    2.1560  124.5700 O   0  0  0  0  0  0  0  0  0  0  0  0
   38.9830    3.3040  124.9400 C   0  0  0  0  0  0  0  0  0  0  0  0
   38.7590    3.6810  126.2450 C   0  0  0  0  0  0  0  0  0  0  0  0
   39.1130    3.0620  127.0530 H   0  0  0  0  0  0  0  0  0  0  0  0
   38.0810    4.8540  126.5080 C   0  0  0  0  0  0  0  0  0  0  0  0
   37.8890    5.1480  127.5260 H   0  0  0  0  0  0  0  0  0  0  0  0
   37.6360    5.6700  125.4820 C   0  0  0  0  0  0  0  0  0  0  0  0
   37.8610    5.2640  124.1600 C   0  0  0  0  0  0  0  0  0  0  0  0
   37.5040    5.8690  123.3430 H   0  0  0  0  0  0  0  0  0  0  0  0
   38.5330    4.1010  123.8990 C   0  0  0  0  0  0  0  0  0  0  0  0
   38.7120    3.8060  122.8790 H   0  0  0  0  0  0  0  0  0  0  0  0
   36.8700    6.8840  125.7400 C   0  0  0  0  0  0  0  0  0  0  0  0
   36.4560    7.3940  127.0080 N   0  0  0  0  0  0  0  0  0  0  0  0
   35.6930    8.5200  126.9220 C   0  0  1  0  0  0  0  0  0  0  0  0
   34.7770    8.3660  127.4320 H   0  0  0  0  0  0  0  0  0  0  0  0
   35.9190    9.9280  127.3700 C   0  0  0  0  0  0  0  0  0  0  0  0
   35.2820   10.5780  126.8290 H   0  0  0  0  0  0  0  0  0  0  0  0
   35.7070   10.0070  128.4050 H   0  0  0  0  0  0  0  0  0  0  0  0
   37.3400   10.3830  127.1520 C   0  0  0  0  0  0  0  0  0  0  0  0
   37.7760   10.6360  128.0830 H   0  0  0  0  0  0  0  0  0  0  0  0
   37.3450   11.2310  126.5180 H   0  0  0  0  0  0  0  0  0  0  0  0
   37.8960    9.6020  126.7020 H   0  0  0  0  0  0  0  0  0  0  0  0
   35.6510    8.6470  125.4130 C   0  0  0  0  0  0  0  0  0  0  0  0
   34.6460    8.6040  125.0830 H   0  0  0  0  0  0  0  0  0  0  0  0
   36.0780    9.5730  125.1260 H   0  0  0  0  0  0  0  0  0  0  0  0
   36.3510    7.6400  124.7860 O   0  0  0  0  0  0  0  0  0  0  0  0
  1  2  1  0  0  0  0
  1 11  1  0  0  0  0
  2  3  1  0  0  0  0
  2  4  1  0  0  0  0
  4  5  1  0  0  0  0
  4  9  2  0  0  0  0
  5  6  1  0  0  0  0
  5  7  1  0  0  0  0
  5  8  1  0  0  0  0
  9 10  1  0  0  0  0
  9 11  1  0  0  0  0
 11 12  2  0  0  0  0
 12 13  1  0  0  0  0
 12 14  1  0  0  0  0
 14 15  1  0  0  0  0
 14 16  1  0  0  0  0
 14 17  1  0  0  0  0
 17 18  1  0  0  0  0
 17 19  1  0  0  0  0
 17 20  1  0  0  0  0
 20 21  1  0  0  0  0
 20 22  1  0  0  0  0
 20 23  1  0  0  0  0
 23 24  1  0  0  0  0
 23 25  1  0  0  0  0
 23 26  1  0  0  0  0
 26 27  1  0  0  0  0
 26 28  1  0  0  0  0
 26 29  1  0  0  0  0
 29 30  1  0  0  0  0
 29 31  1  0  0  0  0
 29 32  1  0  0  0  0
 32 33  1  0  0  0  0
 33 34  1  0  0  0  0
 33 41  2  0  0  0  0
 34 35  1  0  0  0  0
 34 36  2  0  0  0  0
 36 37  1  0  0  0  0
 36 38  1  0  0  0  0
 38 39  2  0  0  0  0
 38 43  1  0  0  0  0
 39 40  1  0  0  0  0
 39 41  1  0  0  0  0
 41 42  1  0  0  0  0
 43 44  2  0  0  0  0
 43 57  1  0  0  0  0
 44 45  1  0  0  0  0
 45 46  1  0  0  0  0
 45 47  1  0  0  0  0
 45 54  1  0  0  0  0
 47 48  1  0  0  0  0
 47 49  1  0  0  0  0
 47 50  1  0  0  0  0
 50 51  1  0  0  0  0
 50 52  1  0  0  0  0
 50 53  1  0  0  0  0
 54 55  1  0  0  0  0
 54 56  1  0  0  0  0
 54 57  1  0  0  0  0
M  END
$$$$
2RS5.*
  MOE2007           3D
2RS5
 51 53  0  0  1  0  0  0  0  0999 V2000
   38.3700    4.8100  125.9080 O   0  0  0  0  0  0  0  0  0  0  0  0
   37.3320    5.7400  126.2010 N   0  0  0  0  0  0  0  0  0  0  0  0
   37.1770    6.4500  125.1340 C   0  0  0  0  0  0  0  0  0  0  0  0
   36.1580    7.5390  125.1030 C   0  0  0  0  0  0  0  0  0  0  0  0
   36.6360    8.4650  124.9140 H   0  0  0  0  0  0  0  0  0  0  0  0
   35.6600    7.5840  126.0370 H   0  0  0  0  0  0  0  0  0  0  0  0
   35.4530    7.3420  124.3380 H   0  0  0  0  0  0  0  0  0  0  0  0
   38.0550    6.0350  124.1220 C   0  0  0  0  0  0  0  0  0  0  0  0
   38.0380    6.5210  123.1610 H   0  0  0  0  0  0  0  0  0  0  0  0
   38.7850    5.0280  124.6400 C   0  0  0  0  0  0  0  0  0  0  0  0
   39.9140    4.1890  124.1290 C   0  0  0  0  0  0  0  0  0  0  0  0
   40.1730    4.5030  123.1520 H   0  0  0  0  0  0  0  0  0  0  0  0
   40.7510    4.2970  124.7680 H   0  0  0  0  0  0  0  0  0  0  0  0
   39.6290    2.6840  124.0390 C   0  0  0  0  0  0  0  0  0  0  0  0
   39.4990    2.2900  125.0130 H   0  0  0  0  0  0  0  0  0  0  0  0
   38.7480    2.5250  123.4730 H   0  0  0  0  0  0  0  0  0  0  0  0
   40.7760    1.9080  123.3620 C   0  0  0  0  0  0  0  0  0  0  0  0
   41.1180    2.4480  122.5180 H   0  0  0  0  0  0  0  0  0  0  0  0
   41.5730    1.7850  124.0490 H   0  0  0  0  0  0  0  0  0  0  0  0
   40.4460    0.5160  122.8580 C   0  0  0  0  0  0  0  0  0  0  0  0
   39.4330    0.2940  123.0730 H   0  0  0  0  0  0  0  0  0  0  0  0
   40.6020    0.4740  121.8110 H   0  0  0  0  0  0  0  0  0  0  0  0
   41.2890   -0.6340  123.4740 C   0  0  0  0  0  0  0  0  0  0  0  0
   41.0180   -0.7650  124.4890 H   0  0  0  0  0  0  0  0  0  0  0  0
   41.1050   -1.5310  122.9410 H   0  0  0  0  0  0  0  0  0  0  0  0
   42.7070   -0.2810  123.3780 O   0  0  0  0  0  0  0  0  0  0  0  0
   43.7370   -1.2400  123.2500 C   0  0  0  0  0  0  0  0  0  0  0  0
   43.6610   -2.5010  122.6200 C   0  0  0  0  0  0  0  0  0  0  0  0
   42.7220   -2.8480  122.2210 H   0  0  0  0  0  0  0  0  0  0  0  0
   44.7860   -3.3050  122.5060 C   0  0  0  0  0  0  0  0  0  0  0  0
   44.7190   -4.2580  122.0070 H   0  0  0  0  0  0  0  0  0  0  0  0
   46.0080   -2.9030  123.0280 C   0  0  0  0  0  0  0  0  0  0  0  0
   46.0710   -1.6830  123.7110 C   0  0  0  0  0  0  0  0  0  0  0  0
   46.9950   -1.3660  124.1630 H   0  0  0  0  0  0  0  0  0  0  0  0
   44.9600   -0.8720  123.8160 C   0  0  0  0  0  0  0  0  0  0  0  0
   45.0480    0.0600  124.3480 H   0  0  0  0  0  0  0  0  0  0  0  0
   47.2430   -3.6670  122.8160 C   0  0  1  0  0  0  0  0  0  0  0  0
   47.6230   -3.9910  123.7500 H   0  0  0  0  0  0  0  0  0  0  0  0
   47.3770   -4.8690  122.0480 N   0  3  0  0  0  0  0  0  0  0  0  0
   46.8060   -5.5940  122.4570 H   0  0  0  0  0  0  0  0  0  0  0  0
   47.0770   -4.6990  121.1000 H   0  0  0  0  0  0  0  0  0  0  0  0
   48.6580   -5.3250  122.0030 C   0  0  1  0  0  0  0  0  0  0  0  0
   48.6980   -6.3070  122.3990 H   0  0  0  0  0  0  0  0  0  0  0  0
   49.6370   -5.5590  120.9150 C   0  0  0  0  0  0  0  0  0  0  0  0
   49.1750   -5.3800  119.9790 H   0  0  0  0  0  0  0  0  0  0  0  0
   49.9770   -6.5620  120.9550 H   0  0  0  0  0  0  0  0  0  0  0  0
   50.4600   -4.9030  121.0340 H   0  0  0  0  0  0  0  0  0  0  0  0
   49.3120   -4.2590  122.8600 C   0  0  0  0  0  0  0  0  0  0  0  0
   49.7590   -4.7120  123.7070 H   0  0  0  0  0  0  0  0  0  0  0  0
   50.0540   -3.7580  122.2950 H   0  0  0  0  0  0  0  0  0  0  0  0
   48.3950   -3.3250  123.2990 O   0  0  0  0  0  0  0  0  0  0  0  0
  1  2  1  0  0  0  0
  1 10  1  0  0  0  0
  2  3  2  0  0  0  0
  3  4  1  0  0  0  0
  3  8  1  0  0  0  0
  4  5  1  0  0  0  0
  4  6  1  0  0  0  0
  4  7  1  0  0  0  0
  8  9  1  0  0  0  0
  8 10  2  0  0  0  0
 10 11  1  0  0  0  0
 11 12  1  0  0  0  0
 11 13  1  0  0  0  0
 11 14  1  0  0  0  0
 14 15  1  0  0  0  0
 14 16  1  0  0  0  0
 14 17  1  0  0  0  0
 17 18  1  0  0  0  0
 17 19  1  0  0  0  0
 17 20  1  0  0  0  0
 20 21  1  0  0  0  0
 20 22  1  0  0  0  0
 20 23  1  0  0  0  0
 23 24  1  0  0  0  0
 23 25  1  0  0  0  0
 23 26  1  0  0  0  0
 26 27  1  0  0  0  0
 27 28  1  0  0  0  0
 27 35  2  0  0  0  0
 28 29  1  0  0  0  0
 28 30  2  0  0  0  0
 30 31  1  0  0  0  0
 30 32  1  0  0  0  0
 32 33  2  0  0  0  0
 32 37  1  0  0  0  0
 33 34  1  0  0  0  0
 33 35  1  0  0  0  0
 35 36  1  0  0  0  0
 37 38  1  0  0  0  0
 37 39  1  0  0  0  0
 37 51  1  0  0  0  0
 39 40  1  0  0  0  0
 39 41  1  0  0  0  0
 39 42  1  0  0  0  0
 42 43  1  0  0  0  0
 42 44  1  0  0  0  0
 42 48  1  0  0  0  0
 44 45  1  0  0  0  0
 44 46  1  0  0  0  0
 44 47  1  0  0  0  0
 48 49  1  0  0  0  0
 48 50  1  0  0  0  0
 48 51  1  0  0  0  0
M  CHG  1  39   1
M  END
$$$$
